
OS:Version,
  {121966ec-8274-487a-87b6-68ec300d426d}, !- Handle
  2.7.1;                                  !- Version Identifier

OS:SpaceType,
  {a6fd35f1-bff6-4189-a9bc-02f3a17e12fc}, !- Handle
  EPr Classroom - DEER Pre-1975,          !- Name
  ,                                       !- Default Construction Set Name
  {94558d87-503c-44ac-a016-99c3919add2d}, !- Default Schedule Set Name
  ,                                       !- Group Rendering Name
  {8dec3ea8-354a-4eb8-adfa-b8f51d72fc05}, !- Design Specification Outdoor Air Object Name
  ,                                       !- Standards Template
  EPr,                                    !- Standards Building Type
  Classroom;                              !- Standards Space Type

OS:SpaceType,
  {afbf53e7-8233-4e24-8ade-37784968bfdb}, !- Handle
  EPr Dining - DEER Pre-1975,             !- Name
  ,                                       !- Default Construction Set Name
  {31b8238c-8320-4a93-a862-596d09c01779}, !- Default Schedule Set Name
  ,                                       !- Group Rendering Name
  {6bdd1b96-3cef-4eec-b887-d521c7186688}, !- Design Specification Outdoor Air Object Name
  ,                                       !- Standards Template
  EPr,                                    !- Standards Building Type
  Dining;                                 !- Standards Space Type

OS:SpaceType,
  {871ed9fd-8868-402a-81f2-36183b184ebf}, !- Handle
  EPr Gymnasium - DEER Pre-1975,          !- Name
  ,                                       !- Default Construction Set Name
  {c5f37fb4-622c-46da-9adf-2a386aa16f6c}, !- Default Schedule Set Name
  ,                                       !- Group Rendering Name
  {b293b62c-8a20-4f47-8e8c-52e14327488c}, !- Design Specification Outdoor Air Object Name
  ,                                       !- Standards Template
  EPr,                                    !- Standards Building Type
  Gymnasium;                              !- Standards Space Type

OS:SpaceType,
  {36e44fa4-2007-4337-9501-1f5583074ad6}, !- Handle
  EPr Kitchen - DEER Pre-1975,            !- Name
  ,                                       !- Default Construction Set Name
  {1f19c5d3-c12d-4320-ad38-732b1ddee8fc}, !- Default Schedule Set Name
  ,                                       !- Group Rendering Name
  {270ee138-3928-44b3-800e-db56a0af82d7}, !- Design Specification Outdoor Air Object Name
  ,                                       !- Standards Template
  EPr,                                    !- Standards Building Type
  Kitchen;                                !- Standards Space Type

OS:Building,
  {8abe5785-d1e9-479f-838d-9b91ad500db4}, !- Handle
  DEER Pre-1975|EPr,                      !- Name
  ,                                       !- Building Sector Type
  ,                                       !- North Axis {deg}
  ,                                       !- Nominal Floor to Floor Height {m}
  ,                                       !- Space Type Name
  {5eaa5afa-1aeb-4b69-9b13-820a3436aee0}, !- Default Construction Set Name
  ,                                       !- Default Schedule Set Name
  ,                                       !- Standards Number of Stories
  ,                                       !- Standards Number of Above Ground Stories
  ,                                       !- Standards Template
  EPr;                                    !- Standards Building Type

OS:Site,
  {871a7441-7624-4bb9-a87e-3e955d3d27e4}, !- Handle
  Site 1,                                 !- Name
  ,                                       !- Latitude {deg}
  ,                                       !- Longitude {deg}
  ,                                       !- Time Zone {hr}
  ,                                       !- Elevation {m}
  City;                                   !- Terrain

OS:BuildingStory,
  {a2b5e600-17ec-48f0-bee2-e9ea961565a0}, !- Handle
  Story Ground,                           !- Name
  0,                                      !- Nominal Z Coordinate {m}
  3.6576,                                 !- Nominal Floor to Floor Height {m}
  ,                                       !- Default Construction Set Name
  ,                                       !- Default Schedule Set Name
  ;                                       !- Group Rendering Name

OS:Space,
  {fcd45405-091e-4c34-a261-c81bb2053865}, !- Handle
  EPr Classroom A end_a - Story Ground,   !- Name
  {a6fd35f1-bff6-4189-a9bc-02f3a17e12fc}, !- Space Type Name
  ,                                       !- Default Construction Set Name
  ,                                       !- Default Schedule Set Name
  -0,                                     !- Direction of Relative North {deg}
  -24.0955918889742,                      !- X Origin {m}
  -12.0477959444871,                      !- Y Origin {m}
  0,                                      !- Z Origin {m}
  {a2b5e600-17ec-48f0-bee2-e9ea961565a0}, !- Building Story Name
  {3a99f0f7-82fe-456e-bc2c-9ae63406bb44}; !- Thermal Zone Name

OS:Surface,
  {72f03935-770e-47f8-a477-84ed7202ea7b}, !- Handle
  Surface 1,                              !- Name
  Floor,                                  !- Surface Type
  ,                                       !- Construction Name
  {fcd45405-091e-4c34-a261-c81bb2053865}, !- Space Name
  Ground,                                 !- Outside Boundary Condition
  ,                                       !- Outside Boundary Condition Object
  NoSun,                                  !- Sun Exposure
  NoWind,                                 !- Wind Exposure
  ,                                       !- View Factor to Ground
  ,                                       !- Number of Vertices
  1.4210854715202e-014, 7.105427357601e-015, 0, !- X,Y,Z Vertex 1 {m}
  1.4210854715202e-014, 4.572, 0,         !- X,Y,Z Vertex 2 {m}
  4.57200000000002, 4.572, 0,             !- X,Y,Z Vertex 3 {m}
  4.57200000000002, 7.105427357601e-015, 0; !- X,Y,Z Vertex 4 {m}

OS:Surface,
  {159c75fc-5d6a-41a8-aceb-b5231f9835dd}, !- Handle
  Surface 2,                              !- Name
  Wall,                                   !- Surface Type
  ,                                       !- Construction Name
  {fcd45405-091e-4c34-a261-c81bb2053865}, !- Space Name
  Outdoors,                               !- Outside Boundary Condition
  ,                                       !- Outside Boundary Condition Object
  SunExposed,                             !- Sun Exposure
  WindExposed,                            !- Wind Exposure
  ,                                       !- View Factor to Ground
  ,                                       !- Number of Vertices
  1.4210854715202e-014, 4.572, 3.6576,    !- X,Y,Z Vertex 1 {m}
  1.4210854715202e-014, 4.572, 0,         !- X,Y,Z Vertex 2 {m}
  1.4210854715202e-014, 7.105427357601e-015, 0, !- X,Y,Z Vertex 3 {m}
  1.4210854715202e-014, 7.105427357601e-015, 3.6576; !- X,Y,Z Vertex 4 {m}

OS:Surface,
  {047d1e69-6587-4215-9aa3-8e07074061e5}, !- Handle
  Surface 3,                              !- Name
  Wall,                                   !- Surface Type
  ,                                       !- Construction Name
  {fcd45405-091e-4c34-a261-c81bb2053865}, !- Space Name
  Surface,                                !- Outside Boundary Condition
  {7ec9af6f-eab1-44eb-8f09-906f1a246f24}, !- Outside Boundary Condition Object
  NoSun,                                  !- Sun Exposure
  NoWind,                                 !- Wind Exposure
  ,                                       !- View Factor to Ground
  ,                                       !- Number of Vertices
  4.57200000000002, 4.572, 3.6576,        !- X,Y,Z Vertex 1 {m}
  4.57200000000002, 4.572, 0,             !- X,Y,Z Vertex 2 {m}
  1.4210854715202e-014, 4.572, 0,         !- X,Y,Z Vertex 3 {m}
  1.4210854715202e-014, 4.572, 3.6576;    !- X,Y,Z Vertex 4 {m}

OS:Surface,
  {bedfd000-56f2-454f-824d-5fae3886c8a7}, !- Handle
  Surface 4,                              !- Name
  Wall,                                   !- Surface Type
  ,                                       !- Construction Name
  {fcd45405-091e-4c34-a261-c81bb2053865}, !- Space Name
  Surface,                                !- Outside Boundary Condition
  {ed42416a-1ac9-46bf-bf4c-42766d45c66b}, !- Outside Boundary Condition Object
  NoSun,                                  !- Sun Exposure
  NoWind,                                 !- Wind Exposure
  ,                                       !- View Factor to Ground
  ,                                       !- Number of Vertices
  4.57200000000002, 7.105427357601e-015, 3.6576, !- X,Y,Z Vertex 1 {m}
  4.57200000000002, 7.105427357601e-015, 0, !- X,Y,Z Vertex 2 {m}
  4.57200000000002, 4.572, 0,             !- X,Y,Z Vertex 3 {m}
  4.57200000000002, 4.572, 3.6576;        !- X,Y,Z Vertex 4 {m}

OS:Surface,
  {03c7b68c-bdf2-4a8a-a9f2-54ec490ac0c8}, !- Handle
  Surface 5,                              !- Name
  Wall,                                   !- Surface Type
  ,                                       !- Construction Name
  {fcd45405-091e-4c34-a261-c81bb2053865}, !- Space Name
  Outdoors,                               !- Outside Boundary Condition
  ,                                       !- Outside Boundary Condition Object
  SunExposed,                             !- Sun Exposure
  WindExposed,                            !- Wind Exposure
  ,                                       !- View Factor to Ground
  ,                                       !- Number of Vertices
  1.4210854715202e-014, 7.105427357601e-015, 3.6576, !- X,Y,Z Vertex 1 {m}
  1.4210854715202e-014, 7.105427357601e-015, 0, !- X,Y,Z Vertex 2 {m}
  4.57200000000002, 7.105427357601e-015, 0, !- X,Y,Z Vertex 3 {m}
  4.57200000000002, 7.105427357601e-015, 3.6576; !- X,Y,Z Vertex 4 {m}

OS:Surface,
  {cb71c3b1-61b5-4380-99be-336987727a70}, !- Handle
  Surface 6,                              !- Name
  RoofCeiling,                            !- Surface Type
  ,                                       !- Construction Name
  {fcd45405-091e-4c34-a261-c81bb2053865}, !- Space Name
  Surface,                                !- Outside Boundary Condition
  {b8598cf9-e93a-47db-8edb-36efa44d23f4}, !- Outside Boundary Condition Object
  NoSun,                                  !- Sun Exposure
  NoWind,                                 !- Wind Exposure
  ,                                       !- View Factor to Ground
  ,                                       !- Number of Vertices
  4.57200000000002, 7.105427357601e-015, 3.6576, !- X,Y,Z Vertex 1 {m}
  4.57200000000002, 4.572, 3.6576,        !- X,Y,Z Vertex 2 {m}
  1.4210854715202e-014, 4.572, 3.6576,    !- X,Y,Z Vertex 3 {m}
  1.4210854715202e-014, 7.105427357601e-015, 3.6576; !- X,Y,Z Vertex 4 {m}

OS:ThermalZone,
  {3a99f0f7-82fe-456e-bc2c-9ae63406bb44}, !- Handle
  Zone EPr Classroom A end_a - Story Ground, !- Name
  1,                                      !- Multiplier
  ,                                       !- Ceiling Height {m}
  ,                                       !- Volume {m3}
  ,                                       !- Floor Area {m2}
  ,                                       !- Zone Inside Convection Algorithm
  ,                                       !- Zone Outside Convection Algorithm
  ,                                       !- Zone Conditioning Equipment List Name
  {04ef1033-6d87-4fea-9e6a-6826d0853fb7}, !- Zone Air Inlet Port List
  {77c333fd-6454-4caa-b7ed-c5fb84466ac5}, !- Zone Air Exhaust Port List
  {2f77a763-5bc4-4393-937b-3f813974758c}, !- Zone Air Node Name
  {63909f91-78ad-4f25-bb03-d14252191f85}, !- Zone Return Air Port List
  ,                                       !- Primary Daylighting Control Name
  ,                                       !- Fraction of Zone Controlled by Primary Daylighting Control
  ,                                       !- Secondary Daylighting Control Name
  ,                                       !- Fraction of Zone Controlled by Secondary Daylighting Control
  ,                                       !- Illuminance Map Name
  ,                                       !- Group Rendering Name
  {ec371a9a-4c88-45fe-9770-39a3a2c84615}, !- Thermostat Name
  No;                                     !- Use Ideal Air Loads

OS:Node,
  {e41b41bb-9bbb-4ffe-9599-f3133f3702af}, !- Handle
  Zone EPr Classroom A end_a - Story Ground Zone Air Node, !- Name
  {2f77a763-5bc4-4393-937b-3f813974758c}, !- Inlet Port
  ;                                       !- Outlet Port

OS:Connection,
  {2f77a763-5bc4-4393-937b-3f813974758c}, !- Handle
  {bc39cb33-ef90-4069-be2c-c42517fa8a69}, !- Name
  {3a99f0f7-82fe-456e-bc2c-9ae63406bb44}, !- Source Object
  11,                                     !- Outlet Port
  {e41b41bb-9bbb-4ffe-9599-f3133f3702af}, !- Target Object
  2;                                      !- Inlet Port

OS:PortList,
  {04ef1033-6d87-4fea-9e6a-6826d0853fb7}, !- Handle
  {162cff59-cc76-4678-96b8-c16402a1b4b4}, !- Name
  {3a99f0f7-82fe-456e-bc2c-9ae63406bb44}, !- HVAC Component
  {0cdc0ab8-5b4e-4a95-9188-830d6330d760}; !- Port 1

OS:PortList,
  {77c333fd-6454-4caa-b7ed-c5fb84466ac5}, !- Handle
  {34785308-f485-4733-95fc-e8c45591bbf8}, !- Name
  {3a99f0f7-82fe-456e-bc2c-9ae63406bb44}; !- HVAC Component

OS:PortList,
  {63909f91-78ad-4f25-bb03-d14252191f85}, !- Handle
  {449e46f2-9e4c-46ff-b7cc-c5f1a6db00e5}, !- Name
  {3a99f0f7-82fe-456e-bc2c-9ae63406bb44}, !- HVAC Component
  {60810f5e-2d9a-498d-a82b-f851a7cc527c}; !- Port 1

OS:Sizing:Zone,
  {7992ec26-eeae-424e-b9fb-a1468709a3cb}, !- Handle
  {3a99f0f7-82fe-456e-bc2c-9ae63406bb44}, !- Zone or ZoneList Name
  SupplyAirTemperature,                   !- Zone Cooling Design Supply Air Temperature Input Method
  12.7777777777778,                       !- Zone Cooling Design Supply Air Temperature {C}
  11.11,                                  !- Zone Cooling Design Supply Air Temperature Difference {deltaC}
  SupplyAirTemperature,                   !- Zone Heating Design Supply Air Temperature Input Method
  50.0000000000001,                       !- Zone Heating Design Supply Air Temperature {C}
  11.11,                                  !- Zone Heating Design Supply Air Temperature Difference {deltaC}
  0.0085,                                 !- Zone Cooling Design Supply Air Humidity Ratio {kg-H2O/kg-air}
  0.008,                                  !- Zone Heating Design Supply Air Humidity Ratio {kg-H2O/kg-air}
  ,                                       !- Zone Heating Sizing Factor
  ,                                       !- Zone Cooling Sizing Factor
  DesignDay,                              !- Cooling Design Air Flow Method
  ,                                       !- Cooling Design Air Flow Rate {m3/s}
  ,                                       !- Cooling Minimum Air Flow per Zone Floor Area {m3/s-m2}
  ,                                       !- Cooling Minimum Air Flow {m3/s}
  ,                                       !- Cooling Minimum Air Flow Fraction
  DesignDay,                              !- Heating Design Air Flow Method
  ,                                       !- Heating Design Air Flow Rate {m3/s}
  ,                                       !- Heating Maximum Air Flow per Zone Floor Area {m3/s-m2}
  ,                                       !- Heating Maximum Air Flow {m3/s}
  ,                                       !- Heating Maximum Air Flow Fraction
  ,                                       !- Design Zone Air Distribution Effectiveness in Cooling Mode
  ,                                       !- Design Zone Air Distribution Effectiveness in Heating Mode
  No,                                     !- Account for Dedicated Outdoor Air System
  NeutralSupplyAir,                       !- Dedicated Outdoor Air System Control Strategy
  autosize,                               !- Dedicated Outdoor Air Low Setpoint Temperature for Design {C}
  autosize;                               !- Dedicated Outdoor Air High Setpoint Temperature for Design {C}

OS:ZoneHVAC:EquipmentList,
  {2d4bacc3-4788-4c1c-afd2-b85dc6135ec3}, !- Handle
  Zone EPr Classroom A end_a - Story Ground Zone HVAC Equipment List, !- Name
  {3a99f0f7-82fe-456e-bc2c-9ae63406bb44}, !- Thermal Zone
  ,                                       !- Load Distribution Scheme
  {45fa1dd1-0fdb-4834-9efc-224b4a11db15}, !- Zone Equipment 1
  1,                                      !- Zone Equipment Cooling Sequence 1
  1;                                      !- Zone Equipment Heating or No-Load Sequence 1

OS:Space,
  {f84a4ed6-1a54-4ac5-8c84-da6ad27d8399}, !- Handle
  EPr Classroom B end_a - Story Ground,   !- Name
  {a6fd35f1-bff6-4189-a9bc-02f3a17e12fc}, !- Space Type Name
  ,                                       !- Default Construction Set Name
  ,                                       !- Default Schedule Set Name
  -0,                                     !- Direction of Relative North {deg}
  -24.0955918889742,                      !- X Origin {m}
  -7.47579594448711,                      !- Y Origin {m}
  0,                                      !- Z Origin {m}
  {a2b5e600-17ec-48f0-bee2-e9ea961565a0}, !- Building Story Name
  {86df4036-ee55-4af7-ba01-0afa30cab7ef}; !- Thermal Zone Name

OS:Surface,
  {327d8d1c-b2ef-481b-8ce4-1cbc5ec2392c}, !- Handle
  Surface 7,                              !- Name
  Floor,                                  !- Surface Type
  ,                                       !- Construction Name
  {f84a4ed6-1a54-4ac5-8c84-da6ad27d8399}, !- Space Name
  Ground,                                 !- Outside Boundary Condition
  ,                                       !- Outside Boundary Condition Object
  NoSun,                                  !- Sun Exposure
  NoWind,                                 !- Wind Exposure
  ,                                       !- View Factor to Ground
  ,                                       !- Number of Vertices
  1.4210854715202e-014, -1.77635683940025e-015, 0, !- X,Y,Z Vertex 1 {m}
  1.4210854715202e-014, 14.9515918889742, 0, !- X,Y,Z Vertex 2 {m}
  4.57200000000002, 14.9515918889742, 0,  !- X,Y,Z Vertex 3 {m}
  4.57200000000002, -1.77635683940025e-015, 0; !- X,Y,Z Vertex 4 {m}

OS:Surface,
  {3308ae5d-be52-4d58-a914-326170c329f9}, !- Handle
  Surface 8,                              !- Name
  Wall,                                   !- Surface Type
  ,                                       !- Construction Name
  {f84a4ed6-1a54-4ac5-8c84-da6ad27d8399}, !- Space Name
  Outdoors,                               !- Outside Boundary Condition
  ,                                       !- Outside Boundary Condition Object
  SunExposed,                             !- Sun Exposure
  WindExposed,                            !- Wind Exposure
  ,                                       !- View Factor to Ground
  ,                                       !- Number of Vertices
  1.4210854715202e-014, 14.9515918889742, 3.6576, !- X,Y,Z Vertex 1 {m}
  1.4210854715202e-014, 14.9515918889742, 0, !- X,Y,Z Vertex 2 {m}
  1.4210854715202e-014, -1.77635683940025e-015, 0, !- X,Y,Z Vertex 3 {m}
  1.4210854715202e-014, -1.77635683940025e-015, 3.6576; !- X,Y,Z Vertex 4 {m}

OS:Surface,
  {441dd61f-e711-47a2-9904-15c970919e8e}, !- Handle
  Surface 9,                              !- Name
  Wall,                                   !- Surface Type
  ,                                       !- Construction Name
  {f84a4ed6-1a54-4ac5-8c84-da6ad27d8399}, !- Space Name
  Surface,                                !- Outside Boundary Condition
  {0c668ccb-fca8-4d07-b030-23815c81cae9}, !- Outside Boundary Condition Object
  NoSun,                                  !- Sun Exposure
  NoWind,                                 !- Wind Exposure
  ,                                       !- View Factor to Ground
  ,                                       !- Number of Vertices
  4.57200000000002, 14.9515918889742, 3.6576, !- X,Y,Z Vertex 1 {m}
  4.57200000000002, 14.9515918889742, 0,  !- X,Y,Z Vertex 2 {m}
  1.4210854715202e-014, 14.9515918889742, 0, !- X,Y,Z Vertex 3 {m}
  1.4210854715202e-014, 14.9515918889742, 3.6576; !- X,Y,Z Vertex 4 {m}

OS:Surface,
  {cdf10294-2303-4359-a46a-0f963685bfee}, !- Handle
  Surface 10,                             !- Name
  Wall,                                   !- Surface Type
  ,                                       !- Construction Name
  {f84a4ed6-1a54-4ac5-8c84-da6ad27d8399}, !- Space Name
  Surface,                                !- Outside Boundary Condition
  {7cca6300-ad78-4667-bdd6-c81943a0d7cf}, !- Outside Boundary Condition Object
  NoSun,                                  !- Sun Exposure
  NoWind,                                 !- Wind Exposure
  ,                                       !- View Factor to Ground
  ,                                       !- Number of Vertices
  4.57200000000002, -1.77635683940025e-015, 3.6576, !- X,Y,Z Vertex 1 {m}
  4.57200000000002, -1.77635683940025e-015, 0, !- X,Y,Z Vertex 2 {m}
  4.57200000000002, 14.9515918889742, 0,  !- X,Y,Z Vertex 3 {m}
  4.57200000000002, 14.9515918889742, 3.6576; !- X,Y,Z Vertex 4 {m}

OS:Surface,
  {7ec9af6f-eab1-44eb-8f09-906f1a246f24}, !- Handle
  Surface 11,                             !- Name
  Wall,                                   !- Surface Type
  ,                                       !- Construction Name
  {f84a4ed6-1a54-4ac5-8c84-da6ad27d8399}, !- Space Name
  Surface,                                !- Outside Boundary Condition
  {047d1e69-6587-4215-9aa3-8e07074061e5}, !- Outside Boundary Condition Object
  NoSun,                                  !- Sun Exposure
  NoWind,                                 !- Wind Exposure
  ,                                       !- View Factor to Ground
  ,                                       !- Number of Vertices
  1.4210854715202e-014, -1.77635683940025e-015, 3.6576, !- X,Y,Z Vertex 1 {m}
  1.4210854715202e-014, -1.77635683940025e-015, 0, !- X,Y,Z Vertex 2 {m}
  4.57200000000002, -1.77635683940025e-015, 0, !- X,Y,Z Vertex 3 {m}
  4.57200000000002, -1.77635683940025e-015, 3.6576; !- X,Y,Z Vertex 4 {m}

OS:Surface,
  {c8d3aa6a-067b-476a-bdc4-7f6fd8948cc0}, !- Handle
  Surface 12,                             !- Name
  RoofCeiling,                            !- Surface Type
  ,                                       !- Construction Name
  {f84a4ed6-1a54-4ac5-8c84-da6ad27d8399}, !- Space Name
  Surface,                                !- Outside Boundary Condition
  {e9edb221-1546-4ea4-b063-e448af8dded5}, !- Outside Boundary Condition Object
  NoSun,                                  !- Sun Exposure
  NoWind,                                 !- Wind Exposure
  ,                                       !- View Factor to Ground
  ,                                       !- Number of Vertices
  4.57200000000002, -1.77635683940025e-015, 3.6576, !- X,Y,Z Vertex 1 {m}
  4.57200000000002, 14.9515918889742, 3.6576, !- X,Y,Z Vertex 2 {m}
  1.4210854715202e-014, 14.9515918889742, 3.6576, !- X,Y,Z Vertex 3 {m}
  1.4210854715202e-014, -1.77635683940025e-015, 3.6576; !- X,Y,Z Vertex 4 {m}

OS:ThermalZone,
  {86df4036-ee55-4af7-ba01-0afa30cab7ef}, !- Handle
  Zone EPr Classroom B end_a - Story Ground, !- Name
  1,                                      !- Multiplier
  ,                                       !- Ceiling Height {m}
  ,                                       !- Volume {m3}
  ,                                       !- Floor Area {m2}
  ,                                       !- Zone Inside Convection Algorithm
  ,                                       !- Zone Outside Convection Algorithm
  ,                                       !- Zone Conditioning Equipment List Name
  {fa8585b6-6548-4af9-b9e9-f25f5cbfd612}, !- Zone Air Inlet Port List
  {79e0295c-6dd3-432b-811e-9203724514e8}, !- Zone Air Exhaust Port List
  {d5eeb640-40b4-4dd5-8e58-9b18015a119d}, !- Zone Air Node Name
  {5da44df0-24fe-4fd6-a841-44aba23bc00a}, !- Zone Return Air Port List
  ,                                       !- Primary Daylighting Control Name
  ,                                       !- Fraction of Zone Controlled by Primary Daylighting Control
  ,                                       !- Secondary Daylighting Control Name
  ,                                       !- Fraction of Zone Controlled by Secondary Daylighting Control
  ,                                       !- Illuminance Map Name
  ,                                       !- Group Rendering Name
  {3d1f5924-b2b3-4603-9617-3cc9f9157919}, !- Thermostat Name
  No;                                     !- Use Ideal Air Loads

OS:Node,
  {15ae6131-7f36-4efc-8889-e4819cc3d8e6}, !- Handle
  Zone EPr Classroom B end_a - Story Ground Zone Air Node, !- Name
  {d5eeb640-40b4-4dd5-8e58-9b18015a119d}, !- Inlet Port
  ;                                       !- Outlet Port

OS:Connection,
  {d5eeb640-40b4-4dd5-8e58-9b18015a119d}, !- Handle
  {45f73cce-fa48-44b7-9758-144642816a5c}, !- Name
  {86df4036-ee55-4af7-ba01-0afa30cab7ef}, !- Source Object
  11,                                     !- Outlet Port
  {15ae6131-7f36-4efc-8889-e4819cc3d8e6}, !- Target Object
  2;                                      !- Inlet Port

OS:PortList,
  {fa8585b6-6548-4af9-b9e9-f25f5cbfd612}, !- Handle
  {faa7170f-03d3-4b0d-bdb3-58c02f30c8bb}, !- Name
  {86df4036-ee55-4af7-ba01-0afa30cab7ef}, !- HVAC Component
  {fb6be3dd-71cf-4271-a4d9-cf9c66ceebfc}; !- Port 1

OS:PortList,
  {79e0295c-6dd3-432b-811e-9203724514e8}, !- Handle
  {ee620eef-2f51-486a-83d2-11e7949fdf96}, !- Name
  {86df4036-ee55-4af7-ba01-0afa30cab7ef}; !- HVAC Component

OS:PortList,
  {5da44df0-24fe-4fd6-a841-44aba23bc00a}, !- Handle
  {535eeac8-f7a6-4e05-b43e-ba6fbc25d21c}, !- Name
  {86df4036-ee55-4af7-ba01-0afa30cab7ef}, !- HVAC Component
  {b1d80cdf-c1d9-4467-81ab-917ecdf1b312}; !- Port 1

OS:Sizing:Zone,
  {9a708e1b-67fd-4194-9d6b-b7c3abb82b14}, !- Handle
  {86df4036-ee55-4af7-ba01-0afa30cab7ef}, !- Zone or ZoneList Name
  SupplyAirTemperature,                   !- Zone Cooling Design Supply Air Temperature Input Method
  12.7777777777778,                       !- Zone Cooling Design Supply Air Temperature {C}
  11.11,                                  !- Zone Cooling Design Supply Air Temperature Difference {deltaC}
  SupplyAirTemperature,                   !- Zone Heating Design Supply Air Temperature Input Method
  50.0000000000001,                       !- Zone Heating Design Supply Air Temperature {C}
  11.11,                                  !- Zone Heating Design Supply Air Temperature Difference {deltaC}
  0.0085,                                 !- Zone Cooling Design Supply Air Humidity Ratio {kg-H2O/kg-air}
  0.008,                                  !- Zone Heating Design Supply Air Humidity Ratio {kg-H2O/kg-air}
  ,                                       !- Zone Heating Sizing Factor
  ,                                       !- Zone Cooling Sizing Factor
  DesignDay,                              !- Cooling Design Air Flow Method
  ,                                       !- Cooling Design Air Flow Rate {m3/s}
  ,                                       !- Cooling Minimum Air Flow per Zone Floor Area {m3/s-m2}
  ,                                       !- Cooling Minimum Air Flow {m3/s}
  ,                                       !- Cooling Minimum Air Flow Fraction
  DesignDay,                              !- Heating Design Air Flow Method
  ,                                       !- Heating Design Air Flow Rate {m3/s}
  ,                                       !- Heating Maximum Air Flow per Zone Floor Area {m3/s-m2}
  ,                                       !- Heating Maximum Air Flow {m3/s}
  ,                                       !- Heating Maximum Air Flow Fraction
  ,                                       !- Design Zone Air Distribution Effectiveness in Cooling Mode
  ,                                       !- Design Zone Air Distribution Effectiveness in Heating Mode
  No,                                     !- Account for Dedicated Outdoor Air System
  NeutralSupplyAir,                       !- Dedicated Outdoor Air System Control Strategy
  autosize,                               !- Dedicated Outdoor Air Low Setpoint Temperature for Design {C}
  autosize;                               !- Dedicated Outdoor Air High Setpoint Temperature for Design {C}

OS:ZoneHVAC:EquipmentList,
  {afd664df-2728-49e5-b77c-61c271940eb4}, !- Handle
  Zone EPr Classroom B end_a - Story Ground Zone HVAC Equipment List, !- Name
  {86df4036-ee55-4af7-ba01-0afa30cab7ef}, !- Thermal Zone
  ,                                       !- Load Distribution Scheme
  {d74883fd-935a-4cef-8ec3-61256a5d2b53}, !- Zone Equipment 1
  1,                                      !- Zone Equipment Cooling Sequence 1
  1;                                      !- Zone Equipment Heating or No-Load Sequence 1

OS:Space,
  {a1f55e81-1484-4698-b297-fcb6daf7c712}, !- Handle
  EPr Classroom C end_a - Story Ground,   !- Name
  {a6fd35f1-bff6-4189-a9bc-02f3a17e12fc}, !- Space Type Name
  ,                                       !- Default Construction Set Name
  ,                                       !- Default Schedule Set Name
  -0,                                     !- Direction of Relative North {deg}
  -24.0955918889742,                      !- X Origin {m}
  7.47579594448711,                       !- Y Origin {m}
  0,                                      !- Z Origin {m}
  {a2b5e600-17ec-48f0-bee2-e9ea961565a0}, !- Building Story Name
  {7b8187d0-12e7-4877-a052-125d07c2151b}; !- Thermal Zone Name

OS:Surface,
  {80bcecd7-b718-49e8-9305-aa7a364d8353}, !- Handle
  Surface 13,                             !- Name
  Floor,                                  !- Surface Type
  ,                                       !- Construction Name
  {a1f55e81-1484-4698-b297-fcb6daf7c712}, !- Space Name
  Ground,                                 !- Outside Boundary Condition
  ,                                       !- Outside Boundary Condition Object