
OS:Version,
  {b31e177b-abaf-48ca-9389-014ebea00c6b}, !- Handle
  2.7.0;                                  !- Version Identifier

OS:SpaceType,
  {c4e42e61-202a-4e9d-8b70-260be8d9e12c}, !- Handle
  WRf IndLoadDock - DEER Pre-1975,        !- Name
  ,                                       !- Default Construction Set Name
  {cd5c3d65-caaa-4be6-b4ac-f5c58361ad17}, !- Default Schedule Set Name
  ,                                       !- Group Rendering Name
  {c84c2ed9-a944-46ea-a2fd-ae11ee6823f4}, !- Design Specification Outdoor Air Object Name
  ,                                       !- Standards Template
  WRf,                                    !- Standards Building Type
  IndLoadDock;                            !- Standards Space Type

OS:SpaceType,
  {fb9b33be-dfb5-404d-8e15-3ce970fece14}, !- Handle
  WRf OfficeGeneral - DEER Pre-1975,      !- Name
  ,                                       !- Default Construction Set Name
  {c13ec634-eaa6-4559-94d6-222fbeb93761}, !- Default Schedule Set Name
  ,                                       !- Group Rendering Name
  {2d1dedc1-0184-4ec9-a0f6-b56c353f4c8e}, !- Design Specification Outdoor Air Object Name
  ,                                       !- Standards Template
  WRf,                                    !- Standards Building Type
  OfficeGeneral;                          !- Standards Space Type

OS:SpaceType,
  {ca02bf73-6b5a-483d-b046-44a3ded14c76}, !- Handle
  WRf RefStorFreezer - DEER Pre-1975,     !- Name
  ,                                       !- Default Construction Set Name
  {8a13abec-0788-48d3-b8bc-cae13510de97}, !- Default Schedule Set Name
  ,                                       !- Group Rendering Name
  {0c571a9f-036d-43bf-80ee-c1e1d6000cb0}, !- Design Specification Outdoor Air Object Name
  ,                                       !- Standards Template
  WRf,                                    !- Standards Building Type
  RefStorFreezer;                         !- Standards Space Type

OS:SpaceType,
  {64fa66ee-d538-444e-ad82-bffe42caf357}, !- Handle
  WRf RefStorCooler - DEER Pre-1975,      !- Name
  ,                                       !- Default Construction Set Name
  {79efab59-c629-4a84-8819-107b41a85d25}, !- Default Schedule Set Name
  ,                                       !- Group Rendering Name
  {10ea1d1b-fe04-4339-91af-79a507899ded}, !- Design Specification Outdoor Air Object Name
  ,                                       !- Standards Template
  WRf,                                    !- Standards Building Type
  RefStorCooler;                          !- Standards Space Type

OS:Building,
  {cbf483ac-4dc7-4641-a0a6-8462750241d2}, !- Handle
  DEER Pre-1975|WRf,                      !- Name
  ,                                       !- Building Sector Type
  ,                                       !- North Axis {deg}
  ,                                       !- Nominal Floor to Floor Height {m}
  ,                                       !- Space Type Name
  {53c75a85-2b71-4970-a8a6-4f7f67add1ad}, !- Default Construction Set Name
  ,                                       !- Default Schedule Set Name
  ,                                       !- Standards Number of Stories
  ,                                       !- Standards Number of Above Ground Stories
  ,                                       !- Standards Template
  WRf;                                    !- Standards Building Type

OS:Site,
  {923941a0-fa19-4a33-b19c-e62400872c33}, !- Handle
  Site 1,                                 !- Name
  ,                                       !- Latitude {deg}
  ,                                       !- Longitude {deg}
  ,                                       !- Time Zone {hr}
  ,                                       !- Elevation {m}
  City;                                   !- Terrain

OS:BuildingStory,
  {c1e29712-b0d0-4ac5-a9ff-859735c8f9f6}, !- Handle
  Story Ground,                           !- Name
  0,                                      !- Nominal Z Coordinate {m}
  9.7536,                                 !- Nominal Floor to Floor Height {m}
  ,                                       !- Default Construction Set Name
  ,                                       !- Default Schedule Set Name
  ;                                       !- Group Rendering Name

OS:Space,
  {19b938c5-c1b2-4d0d-9022-7abbb9a0adc4}, !- Handle
  WRf RefStorCooler A end_a - Story Ground, !- Name
  {64fa66ee-d538-444e-ad82-bffe42caf357}, !- Space Type Name
  ,                                       !- Default Construction Set Name
  ,                                       !- Default Schedule Set Name
  -0,                                     !- Direction of Relative North {deg}
  -60.96,                                 !- X Origin {m}
  -38.1,                                  !- Y Origin {m}
  0,                                      !- Z Origin {m}
  {c1e29712-b0d0-4ac5-a9ff-859735c8f9f6}, !- Building Story Name
  {e0f8e19b-eb33-42dc-9057-9ce332f3ed06}; !- Thermal Zone Name

OS:Surface,
  {d908134f-e985-4156-bed1-775cd7777568}, !- Handle
  Surface 1,                              !- Name
  Floor,                                  !- Surface Type
  ,                                       !- Construction Name
  {19b938c5-c1b2-4d0d-9022-7abbb9a0adc4}, !- Space Name
  Ground,                                 !- Outside Boundary Condition
  ,                                       !- Outside Boundary Condition Object
  NoSun,                                  !- Sun Exposure
  NoWind,                                 !- Wind Exposure
  ,                                       !- View Factor to Ground
  ,                                       !- Number of Vertices
  0, 0, 0,                                !- X,Y,Z Vertex 1 {m}
  0, 4.572, 0,                            !- X,Y,Z Vertex 2 {m}
  4.572, 4.572, 0,                        !- X,Y,Z Vertex 3 {m}
  4.572, 0, 0;                            !- X,Y,Z Vertex 4 {m}

OS:Surface,
  {66484ad6-be82-4881-9801-ddbfd7cac779}, !- Handle
  Surface 2,                              !- Name
  Wall,                                   !- Surface Type
  ,                                       !- Construction Name
  {19b938c5-c1b2-4d0d-9022-7abbb9a0adc4}, !- Space Name
  Outdoors,                               !- Outside Boundary Condition
  ,                                       !- Outside Boundary Condition Object
  SunExposed,                             !- Sun Exposure
  WindExposed,                            !- Wind Exposure
  ,                                       !- View Factor to Ground
  ,                                       !- Number of Vertices
  0, 4.572, 9.7536,                       !- X,Y,Z Vertex 1 {m}
  0, 4.572, 0,                            !- X,Y,Z Vertex 2 {m}
  0, 0, 0,                                !- X,Y,Z Vertex 3 {m}
  0, 0, 9.7536;                           !- X,Y,Z Vertex 4 {m}

OS:Surface,
  {6f0199bc-f07f-41fe-90d3-c546240d59cb}, !- Handle
  Surface 3,                              !- Name
  Wall,                                   !- Surface Type
  ,                                       !- Construction Name
  {19b938c5-c1b2-4d0d-9022-7abbb9a0adc4}, !- Space Name
  Surface,                                !- Outside Boundary Condition
  {9007818c-b235-4430-9cf3-71c0fba4fec9}, !- Outside Boundary Condition Object
  NoSun,                                  !- Sun Exposure
  NoWind,                                 !- Wind Exposure
  ,                                       !- View Factor to Ground
  ,                                       !- Number of Vertices
  4.572, 4.572, 9.7536,                   !- X,Y,Z Vertex 1 {m}
  4.572, 4.572, 0,                        !- X,Y,Z Vertex 2 {m}
  0, 4.572, 0,                            !- X,Y,Z Vertex 3 {m}
  0, 4.572, 9.7536;                       !- X,Y,Z Vertex 4 {m}

OS:Surface,
  {65a237b5-6f4a-4825-8b8f-e9be36e099ac}, !- Handle
  Surface 4,                              !- Name
  Wall,                                   !- Surface Type
  ,                                       !- Construction Name
  {19b938c5-c1b2-4d0d-9022-7abbb9a0adc4}, !- Space Name
  Surface,                                !- Outside Boundary Condition
  {22e12a41-3462-45dc-99e8-9fb9fad0b0bd}, !- Outside Boundary Condition Object
  NoSun,                                  !- Sun Exposure
  NoWind,                                 !- Wind Exposure
  ,                                       !- View Factor to Ground
  ,                                       !- Number of Vertices
  4.572, 0, 9.7536,                       !- X,Y,Z Vertex 1 {m}
  4.572, 0, 0,                            !- X,Y,Z Vertex 2 {m}
  4.572, 4.572, 0,                        !- X,Y,Z Vertex 3 {m}
  4.572, 4.572, 9.7536;                   !- X,Y,Z Vertex 4 {m}

OS:Surface,
  {ae3d4de2-a406-4e82-bda4-15f7bbb103e6}, !- Handle
  Surface 5,                              !- Name
  Wall,                                   !- Surface Type
  ,                                       !- Construction Name
  {19b938c5-c1b2-4d0d-9022-7abbb9a0adc4}, !- Space Name
  Outdoors,                               !- Outside Boundary Condition
  ,                                       !- Outside Boundary Condition Object
  SunExposed,                             !- Sun Exposure
  WindExposed,                            !- Wind Exposure
  ,                                       !- View Factor to Ground
  ,                                       !- Number of Vertices
  0, 0, 9.7536,                           !- X,Y,Z Vertex 1 {m}
  0, 0, 0,                                !- X,Y,Z Vertex 2 {m}
  4.572, 0, 0,                            !- X,Y,Z Vertex 3 {m}
  4.572, 0, 9.7536;                       !- X,Y,Z Vertex 4 {m}

OS:Surface,
  {f332ab57-c9dc-4a9f-b61d-57c9accc8e9a}, !- Handle
  Surface 6,                              !- Name
  RoofCeiling,                            !- Surface Type
  ,                                       !- Construction Name
  {19b938c5-c1b2-4d0d-9022-7abbb9a0adc4}, !- Space Name
  Outdoors,                               !- Outside Boundary Condition
  ,                                       !- Outside Boundary Condition Object
  SunExposed,                             !- Sun Exposure
  WindExposed,                            !- Wind Exposure
  ,                                       !- View Factor to Ground
  ,                                       !- Number of Vertices
  4.572, 0, 9.7536,                       !- X,Y,Z Vertex 1 {m}
  4.572, 4.572, 9.7536,                   !- X,Y,Z Vertex 2 {m}
  0, 4.572, 9.7536,                       !- X,Y,Z Vertex 3 {m}
  0, 0, 9.7536;                           !- X,Y,Z Vertex 4 {m}

OS:ThermalZone,
  {e0f8e19b-eb33-42dc-9057-9ce332f3ed06}, !- Handle
  Zone WRf RefStorCooler A end_a - Story Ground, !- Name
  1,                                      !- Multiplier
  ,                                       !- Ceiling Height {m}
  ,                                       !- Volume {m3}
  ,                                       !- Floor Area {m2}
  ,                                       !- Zone Inside Convection Algorithm
  ,                                       !- Zone Outside Convection Algorithm
  ,                                       !- Zone Conditioning Equipment List Name
  {78d0069f-882d-40e5-ad0f-4311a4bc6b69}, !- Zone Air Inlet Port List
  {4d3dbd1c-ed2d-4716-bc9a-ff121eecedad}, !- Zone Air Exhaust Port List
  {1331c7cf-9210-413b-b270-c36e93815968}, !- Zone Air Node Name
  {486ef240-6487-44f6-9ab4-7d52a63b43eb}, !- Zone Return Air Port List
  ,                                       !- Primary Daylighting Control Name
  ,                                       !- Fraction of Zone Controlled by Primary Daylighting Control
  ,                                       !- Secondary Daylighting Control Name
  ,                                       !- Fraction of Zone Controlled by Secondary Daylighting Control
  ,                                       !- Illuminance Map Name
  ,                                       !- Group Rendering Name
  {cd006d6f-13d6-4e62-8056-d9ed07bfd973}, !- Thermostat Name
  No;                                     !- Use Ideal Air Loads

OS:Node,
  {c5756789-a718-4c5a-81c5-12a261d68f33}, !- Handle
  Zone WRf RefStorCooler A end_a - Story Ground Zone Air Node, !- Name
  {1331c7cf-9210-413b-b270-c36e93815968}, !- Inlet Port
  ;                                       !- Outlet Port

OS:Connection,
  {1331c7cf-9210-413b-b270-c36e93815968}, !- Handle
  {3d055ab4-965b-4926-ba75-1edbf1bfcbe9}, !- Name
  {e0f8e19b-eb33-42dc-9057-9ce332f3ed06}, !- Source Object
  11,                                     !- Outlet Port
  {c5756789-a718-4c5a-81c5-12a261d68f33}, !- Target Object
  2;                                      !- Inlet Port

OS:PortList,
  {78d0069f-882d-40e5-ad0f-4311a4bc6b69}, !- Handle
  {996d309d-da68-4f28-8668-67926b472ebe}, !- Name
  {e0f8e19b-eb33-42dc-9057-9ce332f3ed06}, !- HVAC Component
  {c96d47f2-347d-4c00-a736-f6d62220a061}; !- Port 1

OS:PortList,
  {4d3dbd1c-ed2d-4716-bc9a-ff121eecedad}, !- Handle
  {bcdafabe-2f0b-484c-9754-c221264c8968}, !- Name
  {e0f8e19b-eb33-42dc-9057-9ce332f3ed06}; !- HVAC Component

OS:PortList,
  {486ef240-6487-44f6-9ab4-7d52a63b43eb}, !- Handle
  {ea556166-4895-45fc-b76f-c3659a6bbbf6}, !- Name
  {e0f8e19b-eb33-42dc-9057-9ce332f3ed06}, !- HVAC Component
  {5e3ffaa7-63d5-4187-9d02-0aacc217fd30}; !- Port 1

OS:Sizing:Zone,
  {872e3d22-5333-4f13-93e6-69ca95d0a186}, !- Handle
  {e0f8e19b-eb33-42dc-9057-9ce332f3ed06}, !- Zone or ZoneList Name
  SupplyAirTemperature,                   !- Zone Cooling Design Supply Air Temperature Input Method
  12.7777777777778,                       !- Zone Cooling Design Supply Air Temperature {C}
  11.11,                                  !- Zone Cooling Design Supply Air Temperature Difference {deltaC}
  SupplyAirTemperature,                   !- Zone Heating Design Supply Air Temperature Input Method
  50.0000000000001,                       !- Zone Heating Design Supply Air Temperature {C}
  11.11,                                  !- Zone Heating Design Supply Air Temperature Difference {deltaC}
  0.0085,                                 !- Zone Cooling Design Supply Air Humidity Ratio {kg-H2O/kg-air}
  0.008,                                  !- Zone Heating Design Supply Air Humidity Ratio {kg-H2O/kg-air}
  ,                                       !- Zone Heating Sizing Factor
  ,                                       !- Zone Cooling Sizing Factor
  DesignDay,                              !- Cooling Design Air Flow Method
  ,                                       !- Cooling Design Air Flow Rate {m3/s}
  ,                                       !- Cooling Minimum Air Flow per Zone Floor Area {m3/s-m2}
  ,                                       !- Cooling Minimum Air Flow {m3/s}
  ,                                       !- Cooling Minimum Air Flow Fraction
  DesignDay,                              !- Heating Design Air Flow Method
  ,                                       !- Heating Design Air Flow Rate {m3/s}
  ,                                       !- Heating Maximum Air Flow per Zone Floor Area {m3/s-m2}
  ,                                       !- Heating Maximum Air Flow {m3/s}
  ,                                       !- Heating Maximum Air Flow Fraction
  ,                                       !- Design Zone Air Distribution Effectiveness in Cooling Mode
  ,                                       !- Design Zone Air Distribution Effectiveness in Heating Mode
  No,                                     !- Account for Dedicated Outdoor Air System
  NeutralSupplyAir,                       !- Dedicated Outdoor Air System Control Strategy
  autosize,                               !- Dedicated Outdoor Air Low Setpoint Temperature for Design {C}
  autosize;                               !- Dedicated Outdoor Air High Setpoint Temperature for Design {C}

OS:ZoneHVAC:EquipmentList,
  {d2435a97-0fb3-4cb5-8b04-8d7149a26178}, !- Handle
  Zone WRf RefStorCooler A end_a - Story Ground Zone HVAC Equipment List, !- Name
  {e0f8e19b-eb33-42dc-9057-9ce332f3ed06}, !- Thermal Zone
  ,                                       !- Load Distribution Scheme
  {ca6e6570-f850-4551-9653-e274f17b7bf0}, !- Zone Equipment 1
  1,                                      !- Zone Equipment Cooling Sequence 1
  1;                                      !- Zone Equipment Heating or No-Load Sequence 1

OS:Space,
  {8a69f0df-dc5f-4bc9-b774-ea17b7cee37c}, !- Handle
  WRf RefStorCooler B end_a - Story Ground, !- Name
  {64fa66ee-d538-444e-ad82-bffe42caf357}, !- Space Type Name
  ,                                       !- Default Construction Set Name
  ,                                       !- Default Schedule Set Name
  -0,                                     !- Direction of Relative North {deg}
  -60.96,                                 !- X Origin {m}
  -33.528,                                !- Y Origin {m}
  0,                                      !- Z Origin {m}
  {c1e29712-b0d0-4ac5-a9ff-859735c8f9f6}, !- Building Story Name
  {d114c171-67ad-4193-ac58-8940c41937c3}; !- Thermal Zone Name

OS:Surface,
  {97cdedee-eeb4-40b5-b270-a8c7f51302c0}, !- Handle
  Surface 7,                              !- Name
  Floor,                                  !- Surface Type
  ,                                       !- Construction Name
  {8a69f0df-dc5f-4bc9-b774-ea17b7cee37c}, !- Space Name
  Ground,                                 !- Outside Boundary Condition
  ,                                       !- Outside Boundary Condition Object
  NoSun,                                  !- Sun Exposure
  NoWind,                                 !- Wind Exposure
  ,                                       !- View Factor to Ground
  ,                                       !- Number of Vertices
  0, 0, 0,                                !- X,Y,Z Vertex 1 {m}
  0, 67.056, 0,                           !- X,Y,Z Vertex 2 {m}
  4.572, 67.056, 0,                       !- X,Y,Z Vertex 3 {m}
  4.572, 0, 0;                            !- X,Y,Z Vertex 4 {m}

OS:Surface,
  {46738d9c-f071-4e52-9407-d0044719738a}, !- Handle
  Surface 8,                              !- Name
  Wall,                                   !- Surface Type
  ,                                       !- Construction Name
  {8a69f0df-dc5f-4bc9-b774-ea17b7cee37c}, !- Space Name
  Outdoors,                               !- Outside Boundary Condition
  ,                                       !- Outside Boundary Condition Object
  SunExposed,                             !- Sun Exposure
  WindExposed,                            !- Wind Exposure
  ,                                       !- View Factor to Ground
  ,                                       !- Number of Vertices
  0, 67.056, 9.7536,                      !- X,Y,Z Vertex 1 {m}
  0, 67.056, 0,                           !- X,Y,Z Vertex 2 {m}
  0, 0, 0,                                !- X,Y,Z Vertex 3 {m}
  0, 0, 9.7536;                           !- X,Y,Z Vertex 4 {m}

OS:Surface,
  {45aec844-7dcc-4401-a202-c669e2115d9e}, !- Handle
  Surface 9,                              !- Name
  Wall,                                   !- Surface Type
  ,                                       !- Construction Name
  {8a69f0df-dc5f-4bc9-b774-ea17b7cee37c}, !- Space Name
  Surface,                                !- Outside Boundary Condition
  {26a4298e-f908-4103-822f-0e9d81293d1e}, !- Outside Boundary Condition Object
  NoSun,                                  !- Sun Exposure
  NoWind,                                 !- Wind Exposure
  ,                                       !- View Factor to Ground
  ,                                       !- Number of Vertices
  4.572, 67.056, 9.7536,                  !- X,Y,Z Vertex 1 {m}
  4.572, 67.056, 0,                       !- X,Y,Z Vertex 2 {m}
  0, 67.056, 0,                           !- X,Y,Z Vertex 3 {m}
  0, 67.056, 9.7536;                      !- X,Y,Z Vertex 4 {m}

OS:Surface,
  {99294537-0ebd-4db7-b331-d75cb6aa02b5}, !- Handle
  Surface 10,                             !- Name
  Wall,                                   !- Surface Type
  ,                                       !- Construction Name
  {8a69f0df-dc5f-4bc9-b774-ea17b7cee37c}, !- Space Name
  Surface,                                !- Outside Boundary Condition
  {31b3650d-ffe6-41dd-af23-8579d74d41f3}, !- Outside Boundary Condition Object
  NoSun,                                  !- Sun Exposure
  NoWind,                                 !- Wind Exposure
  ,                                       !- View Factor to Ground
  ,                                       !- Number of Vertices
  4.572, 0, 9.7536,                       !- X,Y,Z Vertex 1 {m}
  4.572, 0, 0,                            !- X,Y,Z Vertex 2 {m}
  4.572, 67.056, 0,                       !- X,Y,Z Vertex 3 {m}
  4.572, 67.056, 9.7536;                  !- X,Y,Z Vertex 4 {m}

OS:Surface,
  {9007818c-b235-4430-9cf3-71c0fba4fec9}, !- Handle
  Surface 11,                             !- Name
  Wall,                                   !- Surface Type
  ,                                       !- Construction Name
  {8a69f0df-dc5f-4bc9-b774-ea17b7cee37c}, !- Space Name
  Surface,                                !- Outside Boundary Condition
  {6f0199bc-f07f-41fe-90d3-c546240d59cb}, !- Outside Boundary Condition Object
  NoSun,                                  !- Sun Exposure
  NoWind,                                 !- Wind Exposure
  ,                                       !- View Factor to Ground
  ,                                       !- Number of Vertices
  0, 0, 9.7536,                           !- X,Y,Z Vertex 1 {m}
  0, 0, 0,                                !- X,Y,Z Vertex 2 {m}
  4.572, 0, 0,                            !- X,Y,Z Vertex 3 {m}
  4.572, 0, 9.7536;                       !- X,Y,Z Vertex 4 {m}

OS:Surface,
  {e2f3b2df-435e-4109-a20a-cfe163d23bca}, !- Handle
  Surface 12,                             !- Name
  RoofCeiling,                            !- Surface Type
  ,                                       !- Construction Name
  {8a69f0df-dc5f-4bc9-b774-ea17b7cee37c}, !- Space Name
  Outdoors,                               !- Outside Boundary Condition
  ,                                       !- Outside Boundary Condition Object
  SunExposed,                             !- Sun Exposure
  WindExposed,                            !- Wind Exposure
  ,                                       !- View Factor to Ground
  ,                                       !- Number of Vertices
  4.572, 0, 9.7536,                       !- X,Y,Z Vertex 1 {m}
  4.572, 67.056, 9.7536,                  !- X,Y,Z Vertex 2 {m}
  0, 67.056, 9.7536,                      !- X,Y,Z Vertex 3 {m}
  0, 0, 9.7536;                           !- X,Y,Z Vertex 4 {m}

OS:ThermalZone,
  {d114c171-67ad-4193-ac58-8940c41937c3}, !- Handle
  Zone WRf RefStorCooler B end_a - Story Ground, !- Name
  1,                                      !- Multiplier
  ,                                       !- Ceiling Height {m}
  ,                                       !- Volume {m3}
  ,                                       !- Floor Area {m2}
  ,                                       !- Zone Inside Convection Algorithm
  ,                                       !- Zone Outside Convection Algorithm
  ,                                       !- Zone Conditioning Equipment List Name
  {736d0cc5-7b19-46e7-a38c-46912cb74af7}, !- Zone Air Inlet Port List
  {fcde5c60-224e-4917-b7d5-8c0081afc27b}, !- Zone Air Exhaust Port List
  {5e57cd6f-88f6-4ca0-af66-3777930dfd35}, !- Zone Air Node Name
  {ab9f5c3b-96b5-4904-98c0-ba738d161eab}, !- Zone Return Air Port List
  ,                                       !- Primary Daylighting Control Name
  ,                                       !- Fraction of Zone Controlled by Primary Daylighting Control
  ,                                       !- Secondary Daylighting Control Name
  ,                                       !- Fraction of Zone Controlled by Secondary Daylighting Control
  ,                                       !- Illuminance Map Name
  ,                                       !- Group Rendering Name
  {d0afc7f9-8d91-442d-8833-78dad2b66426}, !- Thermostat Name
  No;                                     !- Use Ideal Air Loads

OS:Node,
  {14b9ab5a-e3e7-4cec-a0a7-113fac4259ed}, !- Handle
  Zone WRf RefStorCooler B end_a - Story Ground Zone Air Node, !- Name
  {5e57cd6f-88f6-4ca0-af66-3777930dfd35}, !- Inlet Port
  ;                                       !- Outlet Port

OS:Connection,
  {5e57cd6f-88f6-4ca0-af66-3777930dfd35}, !- Handle
  {0115ce80-8ae8-42b8-853f-94d5a37baced}, !- Name
  {d114c171-67ad-4193-ac58-8940c41937c3}, !- Source Object
  11,                                     !- Outlet Port
  {14b9ab5a-e3e7-4cec-a0a7-113fac4259ed}, !- Target Object
  2;                                      !- Inlet Port

OS:PortList,
  {736d0cc5-7b19-46e7-a38c-46912cb74af7}, !- Handle
  {22a786b6-0d07-4a86-ae5f-c2dd4843bc57}, !- Name
  {d114c171-67ad-4193-ac58-8940c41937c3}, !- HVAC Component
  {58f0cbc3-27b2-4c93-91d8-e5c9fdcfda74}; !- Port 1

OS:PortList,
  {fcde5c60-224e-4917-b7d5-8c0081afc27b}, !- Handle
  {60d2f516-cb0b-47cf-a5a2-8d97acb373fa}, !- Name
  {d114c171-67ad-4193-ac58-8940c41937c3}; !- HVAC Component

OS:PortList,
  {ab9f5c3b-96b5-4904-98c0-ba738d161eab}, !- Handle
  {84894bbf-2856-4d30-ac0f-db8e415a2e11}, !- Name
  {d114c171-67ad-4193-ac58-8940c41937c3}, !- HVAC Component
  {1a44c023-6093-45c1-be02-5d6eb91a47ed}; !- Port 1

OS:Sizing:Zone,
  {964e52de-326a-4e1a-ba71-e64466b12b07}, !- Handle
  {d114c171-67ad-4193-ac58-8940c41937c3}, !- Zone or ZoneList Name
  SupplyAirTemperature,                   !- Zone Cooling Design Supply Air Temperature Input Method
  12.7777777777778,                       !- Zone Cooling Design Supply Air Temperature {C}
  11.11,                                  !- Zone Cooling Design Supply Air Temperature Difference {deltaC}
  SupplyAirTemperature,                   !- Zone Heating Design Supply Air Temperature Input Method
  50.0000000000001,                       !- Zone Heating Design Supply Air Temperature {C}
  11.11,                                  !- Zone Heating Design Supply Air Temperature Difference {deltaC}
  0.0085,                                 !- Zone Cooling Design Supply Air Humidity Ratio {kg-H2O/kg-air}
  0.008,                                  !- Zone Heating Design Supply Air Humidity Ratio {kg-H2O/kg-air}
  ,                                       !- Zone Heating Sizing Factor
  ,                                       !- Zone Cooling Sizing Factor
  DesignDay,                              !- Cooling Design Air Flow Method
  ,                                       !- Cooling Design Air Flow Rate {m3/s}
  ,                                       !- Cooling Minimum Air Flow per Zone Floor Area {m3/s-m2}
  ,                                       !- Cooling Minimum Air Flow {m3/s}
  ,                                       !- Cooling Minimum Air Flow Fraction
  DesignDay,                              !- Heating Design Air Flow Method
  ,                                       !- Heating Design Air Flow Rate {m3/s}
  ,                                       !- Heating Maximum Air Flow per Zone Floor Area {m3/s-m2}
  ,                                       !- Heating Maximum Air Flow {m3/s}
  ,                                       !- Heating Maximum Air Flow Fraction
  ,                                       !- Design Zone Air Distribution Effectiveness in Cooling Mode
  ,                                       !- Design Zone Air Distribution Effectiveness in Heating Mode
  No,                                     !- Account for Dedicated Outdoor Air System
  NeutralSupplyAir,                       !- Dedicated Outdoor Air System Control Strategy
  autosize,                               !- Dedicated Outdoor Air Low Setpoint Temperature for Design {C}
  autosize;                               !- Dedicated Outdoor Air High Setpoint Temperature for Design {C}

OS:ZoneHVAC:EquipmentList,
  {e1f1a8f0-ffee-482e-bde1-99b8e0f99ace}, !- Handle
  Zone WRf RefStorCooler B end_a - Story Ground Zone HVAC Equipment List, !- Name
  {d114c171-67ad-4193-ac58-8940c41937c3}, !- Thermal Zone
  ,                                       !- Load Distribution Scheme
  {6574494d-e524-4bd6-9a91-a8aacc03a879}, !- Zone Equipment 1
  1,                                      !- Zone Equipment Cooling Sequence 1
  1;                                      !- Zone Equipment Heating or No-Load Sequence 1

OS:Space,
  {9157432d-8ca6-437d-9217-cee71951b9f4}, !- Handle
  WRf RefStorCooler C end_a - Story Ground, !- Name
  {64fa66ee-d538-444e-ad82-bffe42caf357}, !- Space Type Name
  ,                                       !- Default Construction Set Name
  ,                                       !- Default Schedule Set Name
  -0,                                     !- Direction of Relative North {deg}
  -60.96,                                 !- X Origin {m}
  33.528,                                 !- Y Origin {m}
  0,                                      !- Z Origin {m}
  {c1e29712-b0d0-4ac5-a9ff-859735c8f9f6}, !- Building Story Name
  {8c9bfc05-ebd3-42fb-bfbd-6f6ec2a8b065}; !- Thermal Zone Name

OS:Surface,
  {25d0a2e2-9688-4224-82a6-af68b8ff2894}, !- Handle
  Surface 13,                             !- Name
  Floor,                                  !- Surface Type
  ,                                       !- Construction Name
  {9157432d-8ca6-437d-9217-cee71951b9f4}, !- Space Name
  Ground,                                 !- Outside Boundary Condition
  ,                                       !- Outside Boundary Condition Object
  NoSun,                                  !- Sun Exposure
  NoWind,                                 !- Wind Exposure
  ,                                       !- View Factor to Ground