
OS:Version,
  {59c572cf-0964-4076-8f2c-b19708920268}, !- Handle
  3.0.1;                                  !- Version Identifier

OS:Schedule:Constant,
  {087b6ae8-433b-40a8-b60d-d8c2f735bdb3}, !- Handle
  Always On Discrete,                     !- Name
  {7d1cec48-358b-4d2e-8e25-ed097a1f4f5b}, !- Schedule Type Limits Name
  1;                                      !- Value

OS:ScheduleTypeLimits,
  {7d1cec48-358b-4d2e-8e25-ed097a1f4f5b}, !- Handle
  Always On Discrete Limits,              !- Name
  0,                                      !- Lower Limit Value
  1,                                      !- Upper Limit Value
  Discrete,                               !- Numeric Type
  Availability;                           !- Unit Type

OS:Site,
  {33a21b25-cf6d-422d-a9eb-73fff61b16f2}, !- Handle
  Calgary Intl AP_AB_CAN,                 !- Name
  51.114,                                 !- Latitude {deg}
  -114.02,                                !- Longitude {deg}
  -7,                                     !- Time Zone {hr}
  1084.1,                                 !- Elevation {m}
  City;                                   !- Terrain

OS:SimulationControl,
  {d3748db6-90a4-4abf-9b1d-f90d7eeae2bb}, !- Handle
  Yes,                                    !- Do Zone Sizing Calculation
  Yes,                                    !- Do System Sizing Calculation
  Yes,                                    !- Do Plant Sizing Calculation
  No,                                     !- Run Simulation for Sizing Periods
  Yes,                                    !- Run Simulation for Weather File Run Periods
  0.04,                                   !- Loads Convergence Tolerance Value {W}
  0.2,                                    !- Temperature Convergence Tolerance Value {deltaC}
  FullInteriorAndExterior,                !- Solar Distribution
  25,                                     !- Maximum Number of Warmup Days
  6;                                      !- Minimum Number of Warmup Days

OS:Surface,
  {007c4110-77bc-466f-ac9b-021f9a1a4397}, !- Handle
  Core_Retail_Roof,                       !- Name
  RoofCeiling,                            !- Surface Type
  ,                                       !- Construction Name
  {308a9ccd-586a-4231-b605-b35b346c50c8}, !- Space Name
  Outdoors,                               !- Outside Boundary Condition
  ,                                       !- Outside Boundary Condition Object
  SunExposed,                             !- Sun Exposure
  WindExposed,                            !- Wind Exposure
  ,                                       !- View Factor to Ground
  ,                                       !- Number of Vertices
  29.135, -3, 6.096,                      !- X,Y,Z Vertex 1 {m}
  29.135, 0, 6.096,                       !- X,Y,Z Vertex 2 {m}
  25.135, 0, 6.096,                       !- X,Y,Z Vertex 3 {m}
  25.135, -3, 6.096;                      !- X,Y,Z Vertex 4 {m}

OS:Space,
  {308a9ccd-586a-4231-b605-b35b346c50c8}, !- Handle
  Core_Retail,                            !- Name
  {2429420e-483a-4d65-b214-dd7d7b99c0b3}, !- Space Type Name
  ,                                       !- Default Construction Set Name
  ,                                       !- Default Schedule Set Name
  0,                                      !- Direction of Relative North {deg}
  0,                                      !- X Origin {m}
  6,                                      !- Y Origin {m}
  0,                                      !- Z Origin {m}
  {abec4604-26f9-4acb-88ed-c56f81424c93}, !- Building Story Name
  {2574adee-9861-4f50-a6ef-0b1ee48fcb7c}, !- Thermal Zone Name
  Yes,                                    !- Part of Total Floor Area
  ,                                       !- Design Specification Outdoor Air Object Name
  ;                                       !- Building Unit Name

OS:Surface,
  {dcf01724-4f63-4491-b2c4-3c1b2c9b4b11}, !- Handle
  Back_Space_Wall_South,                  !- Name
  Wall,                                   !- Surface Type
  ,                                       !- Construction Name
  {77c9e620-8800-4f89-addb-d3f75a7e86a8}, !- Space Name
  Surface,                                !- Outside Boundary Condition
  {f7c15bc0-f512-4b7e-956b-057bc9674ae8}, !- Outside Boundary Condition Object
  NoSun,                                  !- Sun Exposure
  NoWind,                                 !- Wind Exposure
  ,                                       !- View Factor to Ground
  ,                                       !- Number of Vertices
  0, 0, 6.096,                            !- X,Y,Z Vertex 1 {m}
  0, 0, 0,                                !- X,Y,Z Vertex 2 {m}
  54.27, 0, 0,                            !- X,Y,Z Vertex 3 {m}
  54.27, 0, 6.096;                        !- X,Y,Z Vertex 4 {m}

OS:Space,
  {77c9e620-8800-4f89-addb-d3f75a7e86a8}, !- Handle
  Back_Space,                             !- Name
  {736ef72e-afee-4290-a3a5-ca8b4f085eb8}, !- Space Type Name
  ,                                       !- Default Construction Set Name
  ,                                       !- Default Schedule Set Name
  0,                                      !- Direction of Relative North {deg}
  0,                                      !- X Origin {m}
  35.27,                                  !- Y Origin {m}
  0,                                      !- Z Origin {m}
  {abec4604-26f9-4acb-88ed-c56f81424c93}, !- Building Story Name
  {8f822185-8bae-4bbe-905a-a1b1100e07d1}, !- Thermal Zone Name
  Yes;                                    !- Part of Total Floor Area

OS:Space,
  {ff444dc8-6aab-41a0-b337-ab0ed7d7956f}, !- Handle
  Front_Retail,                           !- Name
  {2429420e-483a-4d65-b214-dd7d7b99c0b3}, !- Space Type Name
  ,                                       !- Default Construction Set Name
  ,                                       !- Default Schedule Set Name
  0,                                      !- Direction of Relative North {deg}
  29.135,                                 !- X Origin {m}
  0,                                      !- Y Origin {m}
  0,                                      !- Z Origin {m}
  {abec4604-26f9-4acb-88ed-c56f81424c93}, !- Building Story Name
  {f1a2b7cf-dcf1-4ed7-a5e2-72985cc4425e}, !- Thermal Zone Name
  Yes;                                    !- Part of Total Floor Area

OS:Surface,
  {130d2ce1-8031-444a-a8e7-43dd4be3a0df}, !- Handle
  Front_Retail_Wall_West_1,               !- Name
  Wall,                                   !- Surface Type
  ,                                       !- Construction Name
  {ff444dc8-6aab-41a0-b337-ab0ed7d7956f}, !- Space Name
  Surface,                                !- Outside Boundary Condition
  {5e1f6d7e-ff3b-4d67-9c47-30ae92711196}, !- Outside Boundary Condition Object
  NoSun,                                  !- Sun Exposure
  NoWind,                                 !- Wind Exposure
  ,                                       !- View Factor to Ground
  ,                                       !- Number of Vertices
  0, 3, 6.096,                            !- X,Y,Z Vertex 1 {m}
  0, 3, 0,                                !- X,Y,Z Vertex 2 {m}
  0, 0, 0,                                !- X,Y,Z Vertex 3 {m}
  0, 0, 6.096;                            !- X,Y,Z Vertex 4 {m}

OS:Surface,
  {b1864818-2d2f-44a9-856f-e7426af7ed74}, !- Handle
  Point_Of_Sale_Wall_South,               !- Name
  Wall,                                   !- Surface Type
  ,                                       !- Construction Name
  {f3f2316b-fa00-4041-a540-7f94e0c43ec9}, !- Space Name
  Outdoors,                               !- Outside Boundary Condition
  ,                                       !- Outside Boundary Condition Object
  SunExposed,                             !- Sun Exposure
  WindExposed,                            !- Wind Exposure
  ,                                       !- View Factor to Ground
  ,                                       !- Number of Vertices
  0, 0, 6.096,                            !- X,Y,Z Vertex 1 {m}
  0, 0, 0,                                !- X,Y,Z Vertex 2 {m}
  25.135, 0, 0,                           !- X,Y,Z Vertex 3 {m}
  25.135, 0, 6.096;                       !- X,Y,Z Vertex 4 {m}

OS:Space,
  {f3f2316b-fa00-4041-a540-7f94e0c43ec9}, !- Handle
  Point_Of_Sale,                          !- Name
  {2429420e-483a-4d65-b214-dd7d7b99c0b3}, !- Space Type Name
  ,                                       !- Default Construction Set Name
  ,                                       !- Default Schedule Set Name
  0,                                      !- Direction of Relative North {deg}
  0,                                      !- X Origin {m}
  0,                                      !- Y Origin {m}
  0,                                      !- Z Origin {m}
  {abec4604-26f9-4acb-88ed-c56f81424c93}, !- Building Story Name
  {ed76765c-34bb-42e7-b1f8-1e54048a5cbd}, !- Thermal Zone Name
  Yes;                                    !- Part of Total Floor Area

OS:Space,
  {9509fe22-2b00-4be9-ba86-d4e9003d2d32}, !- Handle
  Front_Entry,                            !- Name
  {7c37a164-b337-40f3-9d4c-6e51e505a0dc}, !- Space Type Name
  ,                                       !- Default Construction Set Name
  ,                                       !- Default Schedule Set Name
  0,                                      !- Direction of Relative North {deg}
  25.135,                                 !- X Origin {m}
  0,                                      !- Y Origin {m}
  0,                                      !- Z Origin {m}
  {abec4604-26f9-4acb-88ed-c56f81424c93}, !- Building Story Name
  {18578744-1cd2-41ce-8008-e107ca0c7a8b}, !- Thermal Zone Name
  Yes;                                    !- Part of Total Floor Area

OS:ConvergenceLimits,
  {01e133af-031a-422d-87f7-26793ea40ec2}, !- Handle
  1,                                      !- Minimum System Timestep {minutes}
  20;                                     !- Maximum HVAC Iterations

OS:Surface,
  {81686f66-944c-4647-a238-0e76788e8058}, !- Handle
  Front_Retail_Roof,                      !- Name
  RoofCeiling,                            !- Surface Type
  ,                                       !- Construction Name
  {ff444dc8-6aab-41a0-b337-ab0ed7d7956f}, !- Space Name
  Outdoors,                               !- Outside Boundary Condition
  ,                                       !- Outside Boundary Condition Object
  SunExposed,                             !- Sun Exposure
  WindExposed,                            !- Wind Exposure
  ,                                       !- View Factor to Ground
  ,                                       !- Number of Vertices
  25.135, 0, 6.096,                       !- X,Y,Z Vertex 1 {m}
  25.135, 6, 6.096,                       !- X,Y,Z Vertex 2 {m}
  0, 6, 6.096,                            !- X,Y,Z Vertex 3 {m}
  0, 0, 6.096;                            !- X,Y,Z Vertex 4 {m}

OS:Surface,
  {e7a66a65-5dac-4b98-9c2e-4e6962e737b1}, !- Handle
  Front_Retail_Walll_East,                !- Name
  Wall,                                   !- Surface Type
  ,                                       !- Construction Name
  {ff444dc8-6aab-41a0-b337-ab0ed7d7956f}, !- Space Name
  Outdoors,                               !- Outside Boundary Condition
  ,                                       !- Outside Boundary Condition Object
  SunExposed,                             !- Sun Exposure
  WindExposed,                            !- Wind Exposure
  ,                                       !- View Factor to Ground
  ,                                       !- Number of Vertices
  25.135, 0, 6.096,                       !- X,Y,Z Vertex 1 {m}
  25.135, 0, 0,                           !- X,Y,Z Vertex 2 {m}
  25.135, 6, 0,                           !- X,Y,Z Vertex 3 {m}
  25.135, 6, 6.096;                       !- X,Y,Z Vertex 4 {m}

OS:Surface,
  {f7c15bc0-f512-4b7e-956b-057bc9674ae8}, !- Handle
  Core_Retail_Wall_North,                 !- Name
  Wall,                                   !- Surface Type
  ,                                       !- Construction Name
  {308a9ccd-586a-4231-b605-b35b346c50c8}, !- Space Name
  Surface,                                !- Outside Boundary Condition
  {dcf01724-4f63-4491-b2c4-3c1b2c9b4b11}, !- Outside Boundary Condition Object
  NoSun,                                  !- Sun Exposure
  NoWind,                                 !- Wind Exposure
  ,                                       !- View Factor to Ground
  ,                                       !- Number of Vertices
  54.27, 29.27, 6.096,                    !- X,Y,Z Vertex 1 {m}
  54.27, 29.27, 0,                        !- X,Y,Z Vertex 2 {m}
  0, 29.27, 0,                            !- X,Y,Z Vertex 3 {m}
  0, 29.27, 6.096;                        !- X,Y,Z Vertex 4 {m}

OS:Surface,
  {e280859a-282e-4bc0-994b-05b00beebf64}, !- Handle
  Point_Of_Sale_Wall_East_2,              !- Name
  Wall,                                   !- Surface Type
  ,                                       !- Construction Name
  {f3f2316b-fa00-4041-a540-7f94e0c43ec9}, !- Space Name
  Surface,                                !- Outside Boundary Condition
  {0e17c64b-d8e9-4572-8976-6988ad7d9b7a}, !- Outside Boundary Condition Object
  NoSun,                                  !- Sun Exposure
  NoWind,                                 !- Wind Exposure
  ,                                       !- View Factor to Ground
  ,                                       !- Number of Vertices
  25.135, 3, 6.096,                       !- X,Y,Z Vertex 1 {m}
  25.135, 3, 0,                           !- X,Y,Z Vertex 2 {m}
  25.135, 6, 0,                           !- X,Y,Z Vertex 3 {m}
  25.135, 6, 6.096;                       !- X,Y,Z Vertex 4 {m}

OS:Surface,
  {574d5170-fad7-4d01-b21b-7e3c449e0595}, !- Handle
  Back_Space_Wall_West,                   !- Name
  Wall,                                   !- Surface Type
  ,                                       !- Construction Name
  {77c9e620-8800-4f89-addb-d3f75a7e86a8}, !- Space Name
  Outdoors,                               !- Outside Boundary Condition
  ,                                       !- Outside Boundary Condition Object
  SunExposed,                             !- Sun Exposure
  WindExposed,                            !- Wind Exposure
  ,                                       !- View Factor to Ground
  ,                                       !- Number of Vertices
  0, 7, 6.096,                            !- X,Y,Z Vertex 1 {m}
  0, 7, 0,                                !- X,Y,Z Vertex 2 {m}
  0, 0, 0,                                !- X,Y,Z Vertex 3 {m}
  0, 0, 6.096;                            !- X,Y,Z Vertex 4 {m}

OS:Surface,
  {f86551cc-6113-47a3-800a-fab5fee8d88a}, !- Handle
  Core_Retail_Wall_South_2,               !- Name
  Wall,                                   !- Surface Type
  ,                                       !- Construction Name
  {308a9ccd-586a-4231-b605-b35b346c50c8}, !- Space Name
  Surface,                                !- Outside Boundary Condition
  {b0434d68-632f-47e7-86d1-ed809d771a34}, !- Outside Boundary Condition Object
  NoSun,                                  !- Sun Exposure
  NoWind,                                 !- Wind Exposure
  ,                                       !- View Factor to Ground
  ,                                       !- Number of Vertices
  25.135, -3, 6.096,                      !- X,Y,Z Vertex 1 {m}
  25.135, -3, 0,                          !- X,Y,Z Vertex 2 {m}
  29.135, -3, 0,                          !- X,Y,Z Vertex 3 {m}
  29.135, -3, 6.096;                      !- X,Y,Z Vertex 4 {m}

OS:RunPeriod,
  {e8112eb1-bf0f-4a3e-9504-05cec54a9d5a}, !- Handle
  Run Period 1,                           !- Name
  1,                                      !- Begin Month
  1,                                      !- Begin Day of Month
  12,                                     !- End Month
  31,                                     !- End Day of Month
  No,                                     !- Use Weather File Holidays and Special Days
  No,                                     !- Use Weather File Daylight Saving Period
  No,                                     !- Apply Weekend Holiday Rule
  Yes,                                    !- Use Weather File Rain Indicators
  Yes,                                    !- Use Weather File Snow Indicators
  1;                                      !- Number of Times Runperiod to be Repeated

OS:YearDescription,
  {4b88897e-f470-4ec3-b5b7-eccdc7730b3c}, !- Handle
  ,                                       !- Calendar Year
  Sunday;                                 !- Day of Week for Start Day

OS:Surface,
  {56a9975f-d855-4b54-88f1-82307e9f180e}, !- Handle
  Front_Entry_Roof,                       !- Name
  RoofCeiling,                            !- Surface Type
  ,                                       !- Construction Name
  {9509fe22-2b00-4be9-ba86-d4e9003d2d32}, !- Space Name
  Outdoors,                               !- Outside Boundary Condition
  ,                                       !- Outside Boundary Condition Object
  SunExposed,                             !- Sun Exposure
  WindExposed,                            !- Wind Exposure
  ,                                       !- View Factor to Ground
  ,                                       !- Number of Vertices
  4, 0, 6.096,                            !- X,Y,Z Vertex 1 {m}
  4, 3, 6.096,                            !- X,Y,Z Vertex 2 {m}
  0, 3, 6.096,                            !- X,Y,Z Vertex 3 {m}
  0, 0, 6.096;                            !- X,Y,Z Vertex 4 {m}

OS:Surface,
  {a20f92e2-6d85-44b9-b5d8-6f8bf69281de}, !- Handle
  Core_Retail_Floor,                      !- Name
  Floor,                                  !- Surface Type
  ,                                       !- Construction Name
  {308a9ccd-586a-4231-b605-b35b346c50c8}, !- Space Name
  Ground,                                 !- Outside Boundary Condition
  ,                                       !- Outside Boundary Condition Object
  NoSun,                                  !- Sun Exposure
  NoWind,                                 !- Wind Exposure
  ,                                       !- View Factor to Ground
  ,                                       !- Number of Vertices
  54.27, 29.27, 0,                        !- X,Y,Z Vertex 1 {m}
  54.27, 0, 0,                            !- X,Y,Z Vertex 2 {m}
  29.135, 0, 0,                           !- X,Y,Z Vertex 3 {m}
  29.135, -3, 0,                          !- X,Y,Z Vertex 4 {m}
  25.135, -3, 0,                          !- X,Y,Z Vertex 5 {m}
  25.135, 0, 0,                           !- X,Y,Z Vertex 6 {m}
  0, 0, 0,                                !- X,Y,Z Vertex 7 {m}
  0, 29.27, 0;                            !- X,Y,Z Vertex 8 {m}

OS:Surface,
  {9e052095-17db-4f99-be9f-ed9891635891}, !- Handle
  Point_Of_Sale_Wall_North,               !- Name
  Wall,                                   !- Surface Type
  ,                                       !- Construction Name
  {f3f2316b-fa00-4041-a540-7f94e0c43ec9}, !- Space Name
  Surface,                                !- Outside Boundary Condition
  {02838114-74d6-43ce-adfa-6fd01d3a20b4}, !- Outside Boundary Condition Object
  NoSun,                                  !- Sun Exposure
  NoWind,                                 !- Wind Exposure
  ,                                       !- View Factor to Ground
  ,                                       !- Number of Vertices
  25.135, 6, 6.096,                       !- X,Y,Z Vertex 1 {m}
  25.135, 6, 0,                           !- X,Y,Z Vertex 2 {m}
  0, 6, 0,                                !- X,Y,Z Vertex 3 {m}
  0, 6, 6.096;                            !- X,Y,Z Vertex 4 {m}

OS:Surface,
  {31bad697-4ab6-43a2-95c9-be82045e796b}, !- Handle
  Front_Entry_Wall_South,                 !- Name
  Wall,                                   !- Surface Type
  ,                                       !- Construction Name
  {9509fe22-2b00-4be9-ba86-d4e9003d2d32}, !- Space Name
  Outdoors,                               !- Outside Boundary Condition
  ,                                       !- Outside Boundary Condition Object
  SunExposed,                             !- Sun Exposure
  WindExposed,                            !- Wind Exposure
  ,                                       !- View Factor to Ground
  ,                                       !- Number of Vertices
  0, 0, 6.096,                            !- X,Y,Z Vertex 1 {m}
  0, 0, 0,                                !- X,Y,Z Vertex 2 {m}
  4, 0, 0,                                !- X,Y,Z Vertex 3 {m}
  4, 0, 6.096;                            !- X,Y,Z Vertex 4 {m}

OS:Surface,
  {cef973eb-e048-41ee-a604-ff105a38d5ef}, !- Handle
  Core_Retail_Wall_East_2,                !- Name
  Wall,                                   !- Surface Type
  ,                                       !- Construction Name
  {308a9ccd-586a-4231-b605-b35b346c50c8}, !- Space Name
  Outdoors,                               !- Outside Boundary Condition
  ,                                       !- Outside Boundary Condition Object
  SunExposed,                             !- Sun Exposure
  WindExposed,                            !- Wind Exposure
  ,                                       !- View Factor to Ground
  ,                                       !- Number of Vertices
  54.27, 0, 6.096,                        !- X,Y,Z Vertex 1 {m}
  54.27, 0, 0,                            !- X,Y,Z Vertex 2 {m}
  54.27, 29.27, 0,                        !- X,Y,Z Vertex 3 {m}
  54.27, 29.27, 6.096;                    !- X,Y,Z Vertex 4 {m}

OS:Output:Meter,
  {e4199d80-9307-426c-bf30-c9675ea6bf8e}, !- Handle
  Electricity:Building,                   !- Name
  hourly,                                 !- Reporting Frequency
  True,                                   !- Meter File Only
  False;                                  !- Cumulative

OS:Surface,
  {fbb9dae1-2373-4060-86cd-612591d00e85}, !- Handle
  Point_Of_Sale_Wall_West,                !- Name
  Wall,                                   !- Surface Type
  ,                                       !- Construction Name
  {f3f2316b-fa00-4041-a540-7f94e0c43ec9}, !- Space Name
  Outdoors,                               !- Outside Boundary Condition
  ,                                       !- Outside Boundary Condition Object
  SunExposed,                             !- Sun Exposure
  WindExposed,                            !- Wind Exposure
  ,                                       !- View Factor to Ground
  ,                                       !- Number of Vertices
  0, 6, 6.096,                            !- X,Y,Z Vertex 1 {m}
  0, 6, 0,                                !- X,Y,Z Vertex 2 {m}
  0, 0, 0,                                !- X,Y,Z Vertex 3 {m}
  0, 0, 6.096;                            !- X,Y,Z Vertex 4 {m}

OS:Output:Meter,
  {139b7b53-04f5-403e-8345-364b1ba4e248}, !- Handle
  Electricity:Facility,                   !- Name
  hourly,                                 !- Reporting Frequency
  True,                                   !- Meter File Only
  False;                                  !- Cumulative

OS:Surface,
  {ac9ed7a4-af2e-4184-801f-769810e707b3}, !- Handle
  Front_Entry_Wall_West,                  !- Name
  Wall,                                   !- Surface Type
  ,                                       !- Construction Name
  {9509fe22-2b00-4be9-ba86-d4e9003d2d32}, !- Space Name
  Surface,                                !- Outside Boundary Condition
  {65d5492c-2859-4aaf-a4ab-8234a0085303}, !- Outside Boundary Condition Object
  NoSun,                                  !- Sun Exposure
  NoWind,                                 !- Wind Exposure
  ,                                       !- View Factor to Ground
  ,                                       !- Number of Vertices
  0, 3, 6.096,                            !- X,Y,Z Vertex 1 {m}
  0, 3, 0,                                !- X,Y,Z Vertex 2 {m}
  0, 0, 0,                                !- X,Y,Z Vertex 3 {m}
  0, 0, 6.096;                            !- X,Y,Z Vertex 4 {m}

OS:Surface,
  {0e17c64b-d8e9-4572-8976-6988ad7d9b7a}, !- Handle
  Core_Retail_Wall_West_1,                !- Name
  Wall,                                   !- Surface Type
  ,                                       !- Construction Name
  {308a9ccd-586a-4231-b605-b35b346c50c8}, !- Space Name
  Surface,                                !- Outside Boundary Condition
  {e280859a-282e-4bc0-994b-05b00beebf64}, !- Outside Boundary Condition Object
  NoSun,                                  !- Sun Exposure
  NoWind,                                 !- Wind Exposure
  ,                                       !- View Factor to Ground
  ,                                       !- Number of Vertices
  25.135, 0, 6.096,                       !- X,Y,Z Vertex 1 {m}
  25.135, 0, 0,                           !- X,Y,Z Vertex 2 {m}
  25.135, -3, 0,                          !- X,Y,Z Vertex 3 {m}
  25.135, -3, 6.096;                      !- X,Y,Z Vertex 4 {m}

OS:Surface,
  {a1190d1a-cb0a-4896-a583-a3ec0943642b}, !- Handle
  Core_Retail_Wall_East_1,                !- Name
  Wall,                                   !- Surface Type
  ,                                       !- Construction Name
  {308a9ccd-586a-4231-b605-b35b346c50c8}, !- Space Name
  Surface,                                !- Outside Boundary Condition
  {f97e74f4-eabe-4215-a34d-67437c7a0922}, !- Outside Boundary Condition Object
  NoSun,                                  !- Sun Exposure
  NoWind,                                 !- Wind Exposure
  ,                                       !- View Factor to Ground
  ,                                       !- Number of Vertices
  29.135, -3, 6.096,                      !- X,Y,Z Vertex 1 {m}
  29.135, -3, 0,                          !- X,Y,Z Vertex 2 {m}
  29.135, 0, 0,                           !- X,Y,Z Vertex 3 {m}
  29.135, 0, 6.096;                       !- X,Y,Z Vertex 4 {m}

OS:Surface,
  {e90b5fea-eb9b-4071-9dc8-3c0c8bc9ba82}, !- Handle
  Front_Retail_Wall_South,                !- Name
  Wall,                                   !- Surface Type
  ,                                       !- Construction Name
  {ff444dc8-6aab-41a0-b337-ab0ed7d7956f}, !- Space Name
  Outdoors,                               !- Outside Boundary Condition
  ,                                       !- Outside Boundary Condition Object
  SunExposed,                             !- Sun Exposure
  WindExposed,                            !- Wind Exposure
  ,                                       !- View Factor to Ground
  ,                                       !- Number of Vertices
  0, 0, 6.096,                            !- X,Y,Z Vertex 1 {m}
  0, 0, 0,                                !- X,Y,Z Vertex 2 {m}
  25.135, 0, 0,                           !- X,Y,Z Vertex 3 {m}
  25.135, 0, 6.096;                       !- X,Y,Z Vertex 4 {m}

OS:Surface,
  {b0434d68-632f-47e7-86d1-ed809d771a34}, !- Handle
  Front_Entry_Wall_North,                 !- Name
  Wall,                                   !- Surface Type
  ,                                       !- Construction Name
  {9509fe22-2b00-4be9-ba86-d4e9003d2d32}, !- Space Name
  Surface,                                !- Outside Boundary Condition
  {f86551cc-6113-47a3-800a-fab5fee8d88a}, !- Outside Boundary Condition Object
  NoSun,                                  !- Sun Exposure
  NoWind,                                 !- Wind Exposure
  ,                                       !- View Factor to Ground
  ,                                       !- Number of Vertices
  4, 3, 6.096,                            !- X,Y,Z Vertex 1 {m}
  4, 3, 0,                                !- X,Y,Z Vertex 2 {m}
  0, 3, 0,                                !- X,Y,Z Vertex 3 {m}
  0, 3, 6.096;                            !- X,Y,Z Vertex 4 {m}

OS:Surface,
  {b1f44ee4-16c1-4b36-9113-e612d2b19c85}, !- Handle
  Front_Retail_Wall_North,                !- Name
  Wall,                                   !- Surface Type
  ,                                       !- Construction Name
  {ff444dc8-6aab-41a0-b337-ab0ed7d7956f}, !- Space Name
  Surface,                                !- Outside Boundary Condition
  {48434493-2135-4d31-aae6-4650a1fe7941}, !- Outside Boundary Condition Object
  NoSun,                                  !- Sun Exposure
  NoWind,                                 !- Wind Exposure
  ,                                       !- View Factor to Ground
  ,                                       !- Number of Vertices
  25.135, 6, 6.096,                       !- X,Y,Z Vertex 1 {m}
  25.135, 6, 0,                           !- X,Y,Z Vertex 2 {m}
  0, 6, 0,                                !- X,Y,Z Vertex 3 {m}
  0, 6, 6.096;                            !- X,Y,Z Vertex 4 {m}

OS:Surface,
  {1c0b2f85-985a-4120-83c4-33c47373b23a}, !- Handle
  Front_Entry_Floor,                      !- Name
  Floor,                                  !- Surface Type
  ,                                       !- Construction Name
  {9509fe22-2b00-4be9-ba86-d4e9003d2d32}, !- Space Name
  Ground,                                 !- Outside Boundary Condition
  ,                                       !- Outside Boundary Condition Object
  NoSun,                                  !- Sun Exposure
  NoWind,                                 !- Wind Exposure
  ,                                       !- View Factor to Ground
  ,                                       !- Number of Vertices
  4, 3, 0,                                !- X,Y,Z Vertex 1 {m}
  4, 0, 0,                                !- X,Y,Z Vertex 2 {m}
  0, 0, 0,                                !- X,Y,Z Vertex 3 {m}
  0, 3, 0;                                !- X,Y,Z Vertex 4 {m}

OS:Output:Meter,
  {c5337ee0-a469-4677-86f0-9837fa48ae21}, !- Handle