
OS:Version,
  {d8893f07-97d9-41ab-aa4b-e3dd24073b37}, !- Handle
  3.2.0;                                  !- Version Identifier

OS:Schedule:Constant,
  {077094bc-bdcf-4d44-83ac-234b07c4be8d}, !- Handle
  Always On Discrete,                     !- Name
  {34a4d743-19cb-4fe5-b8e7-c7376fcbc76d}, !- Schedule Type Limits Name
  1;                                      !- Value

OS:ScheduleTypeLimits,
  {34a4d743-19cb-4fe5-b8e7-c7376fcbc76d}, !- Handle
  Always On Discrete Limits,              !- Name
  0,                                      !- Lower Limit Value
  1,                                      !- Upper Limit Value
  Discrete,                               !- Numeric Type
  Availability;                           !- Unit Type

OS:Site,
  {b24a8c8c-c603-4c71-9293-1675139ee819}, !- Handle
  Calgary Intl AP_AB_CAN,                 !- Name
  51.114,                                 !- Latitude {deg}
  -114.02,                                !- Longitude {deg}
  -7,                                     !- Time Zone {hr}
  1084.1,                                 !- Elevation {m}
  Suburbs;                                !- Terrain

OS:SimulationControl,
  {b3838fe9-dd1f-424c-a8a9-73ac9fdc550d}, !- Handle
  Yes,                                    !- Do Zone Sizing Calculation
  Yes,                                    !- Do System Sizing Calculation
  Yes,                                    !- Do Plant Sizing Calculation
  No,                                     !- Run Simulation for Sizing Periods
  Yes,                                    !- Run Simulation for Weather File Run Periods
  0.04,                                   !- Loads Convergence Tolerance Value {W}
  0.4,                                    !- Temperature Convergence Tolerance Value {deltaC}
  FullExterior,                           !- Solar Distribution
  25,                                     !- Maximum Number of Warmup Days
  6,                                      !- Minimum Number of Warmup Days
  Yes,                                    !- Do HVAC Sizing Simulation for Sizing Periods
  1;                                      !- Maximum Number of HVAC Sizing Simulation Passes

OS:Surface,
  {9a7119fd-0f0e-4e33-9d27-40c522dd10a7}, !- Handle
  P_GuestRoom319_10204_0_10111,           !- Name
  Wall,                                   !- Surface Type
  ,                                       !- Construction Name
  {b348f0b3-7513-4945-aab8-392424f022d8}, !- Space Name
  Surface,                                !- Outside Boundary Condition
  {28589f15-8eea-41b6-aafd-f5de8680c100}, !- Outside Boundary Condition Object
  NoSun,                                  !- Sun Exposure
  NoWind,                                 !- Wind Exposure
  ,                                       !- View Factor to Ground
  ,                                       !- Number of Vertices
  28.69988442, 10.1078292198, 8.8392,     !- X,Y,Z Vertex 1 {m}
  28.69988442, 10.1078292198, 6.096,      !- X,Y,Z Vertex 2 {m}
  32.66228442, 10.1078292198, 6.096,      !- X,Y,Z Vertex 3 {m}
  32.66228442, 10.1078292198, 8.8392;     !- X,Y,Z Vertex 4 {m}

OS:Connection,
  {ba7f5790-e06c-47df-8c8e-ccf0762f0b5f}, !- Handle
  ,                                       !- Source Object
  11,                                     !- Outlet Port
  ,                                       !- Target Object
  2;                                      !- Inlet Port

OS:Space,
  {b348f0b3-7513-4945-aab8-392424f022d8}, !- Handle
  GuestRoom319,                           !- Name
  {5ca86fce-20c3-46c4-a378-d293b01c9aac}, !- Space Type Name
  ,                                       !- Default Construction Set Name
  ,                                       !- Default Schedule Set Name
  0,                                      !- Direction of Relative North {deg}
  0,                                      !- X Origin {m}
  0,                                      !- Y Origin {m}
  0,                                      !- Z Origin {m}
  {a0267c62-2b20-48a3-a3ac-400cdbdf753f}, !- Building Story Name
  {453a1871-40bb-41a5-8b03-657f80ea6f54}; !- Thermal Zone Name

OS:Connection,
  {c387cf8a-aa04-489b-814c-10fc2a2ea994}, !- Handle
  ,                                       !- Source Object
  11,                                     !- Outlet Port
  ,                                       !- Target Object
  2;                                      !- Inlet Port

OS:Space,
  {a202d60c-8fd9-423f-beff-6d304d4790c3}, !- Handle
  GuestRoom424,                           !- Name
  {5ca86fce-20c3-46c4-a378-d293b01c9aac}, !- Space Type Name
  ,                                       !- Default Construction Set Name
  ,                                       !- Default Schedule Set Name
  0,                                      !- Direction of Relative North {deg}
  0,                                      !- X Origin {m}
  0,                                      !- Y Origin {m}
  0,                                      !- Z Origin {m}
  {598930d2-37e5-42f6-916a-59beb3aebe45}, !- Building Story Name
  {cf763efd-49aa-4d7d-8c31-75c74f09b493}; !- Thermal Zone Name

OS:Surface,
  {6d825951-5a96-4d9c-856a-825cccb0cf9a}, !- Handle
  P_GuestRoom413_10321_0_10172,           !- Name
  Wall,                                   !- Surface Type
  ,                                       !- Construction Name
  {c500b375-15fc-4e9d-b0b1-3113a325d7eb}, !- Space Name
  Surface,                                !- Outside Boundary Condition
  {4cd929db-88b7-4d22-83f8-fc67c6ac1c1b}, !- Outside Boundary Condition Object
  NoSun,                                  !- Sun Exposure
  NoWind,                                 !- Wind Exposure
  ,                                       !- View Factor to Ground
  ,                                       !- Number of Vertices
  48.5118844242, 8.27902922, 11.5824,     !- X,Y,Z Vertex 1 {m}
  48.5118844242, 8.27902922, 8.8392,      !- X,Y,Z Vertex 2 {m}
  48.5118844242, 0.04884522, 8.8392,      !- X,Y,Z Vertex 3 {m}
  48.5118844242, 0.04884522, 11.5824;     !- X,Y,Z Vertex 4 {m}

OS:Connection,
  {fbc7c13b-14fe-4330-899a-0becac95df7e}, !- Handle
  ,                                       !- Source Object
  11,                                     !- Outlet Port
  ,                                       !- Target Object
  2;                                      !- Inlet Port

OS:Space,
  {c500b375-15fc-4e9d-b0b1-3113a325d7eb}, !- Handle
  GuestRoom413,                           !- Name
  {5ca86fce-20c3-46c4-a378-d293b01c9aac}, !- Space Type Name
  ,                                       !- Default Construction Set Name
  ,                                       !- Default Schedule Set Name
  0,                                      !- Direction of Relative North {deg}
  0,                                      !- X Origin {m}
  0,                                      !- Y Origin {m}
  0,                                      !- Z Origin {m}
  {598930d2-37e5-42f6-916a-59beb3aebe45}, !- Building Story Name
  {22ad6789-577b-4f9f-bc9b-a0e16bf3e2f9}; !- Thermal Zone Name

OS:Surface,
  {1283f671-619c-49ab-b5ec-91749e467da5}, !- Handle
  P_GuestRoom103_10026_0_10024,           !- Name
  Wall,                                   !- Surface Type
  ,                                       !- Construction Name
  {c3815c02-c039-40d5-bd9e-3aa8723ae1f6}, !- Space Name
  Surface,                                !- Outside Boundary Condition
  {0142e4a3-3a91-46d0-b231-52033ca312ae}, !- Outside Boundary Condition Object
  NoSun,                                  !- Sun Exposure
  NoWind,                                 !- Wind Exposure
  ,                                       !- View Factor to Ground
  ,                                       !- Number of Vertices
  52.47428442, 8.2790292198, 3.3528,      !- X,Y,Z Vertex 1 {m}
  52.47428442, 8.2790292198, 0,           !- X,Y,Z Vertex 2 {m}
  48.51188442, 8.2790292198, 0,           !- X,Y,Z Vertex 3 {m}
  48.51188442, 8.2790292198, 3.3528;      !- X,Y,Z Vertex 4 {m}

OS:Connection,
  {ff02caa5-3343-4fc0-9044-dc985c0a9eab}, !- Handle
  ,                                       !- Source Object
  11,                                     !- Outlet Port
  ,                                       !- Target Object
  2;                                      !- Inlet Port

OS:Space,
  {c3815c02-c039-40d5-bd9e-3aa8723ae1f6}, !- Handle
  GuestRoom103,                           !- Name
  {5ca86fce-20c3-46c4-a378-d293b01c9aac}, !- Space Type Name
  ,                                       !- Default Construction Set Name
  ,                                       !- Default Schedule Set Name
  0,                                      !- Direction of Relative North {deg}
  0,                                      !- X Origin {m}
  0,                                      !- Y Origin {m}
  0,                                      !- Z Origin {m}
  {ecca0920-11a7-47b2-a376-103d79332642}, !- Building Story Name
  {8b5de34c-556e-4b47-83cc-b321209a2e06}; !- Thermal Zone Name

OS:Connection,
  {c2564dde-d183-49e1-8f66-e1cfa92f5813}, !- Handle
  ,                                       !- Source Object
  11,                                     !- Outlet Port
  ,                                       !- Target Object
  2;                                      !- Inlet Port

OS:Space,
  {b1548dbe-dfc0-46a3-9008-47b54bb73600}, !- Handle
  GuestRoom209_212,                       !- Name
  {5ca86fce-20c3-46c4-a378-d293b01c9aac}, !- Space Type Name
  ,                                       !- Default Construction Set Name
  ,                                       !- Default Schedule Set Name
  0,                                      !- Direction of Relative North {deg}
  0,                                      !- X Origin {m}
  0,                                      !- Y Origin {m}
  0,                                      !- Z Origin {m}
  {64fa6f7e-85e6-47e6-ac14-a191ce9fe253}, !- Building Story Name
  {8e0aecc8-fce0-4db0-8a62-b25d6240a544}; !- Thermal Zone Name

OS:Connection,
  {dc2ea7a1-a7b2-4172-add6-0b623a36e9c9}, !- Handle
  ,                                       !- Source Object
  11,                                     !- Outlet Port
  ,                                       !- Target Object
  2;                                      !- Inlet Port

OS:Space,
  {00a26ae5-1835-4e67-bf63-ff3980d68bef}, !- Handle
  CorridorFlr2,                           !- Name
  {7cd7e6cd-0ad8-4a4f-89f8-1819ca4f265c}, !- Space Type Name
  ,                                       !- Default Construction Set Name
  ,                                       !- Default Schedule Set Name
  0,                                      !- Direction of Relative North {deg}
  0,                                      !- X Origin {m}
  0,                                      !- Y Origin {m}
  0,                                      !- Z Origin {m}
  {64fa6f7e-85e6-47e6-ac14-a191ce9fe253}, !- Building Story Name
  {0860d074-fd6b-45d3-bb4e-e5cbd37f822b}; !- Thermal Zone Name

OS:Connection,
  {5d423a03-37ad-4681-8ca7-d4db7739a714}, !- Handle
  ,                                       !- Source Object
  11,                                     !- Outlet Port
  ,                                       !- Target Object
  2;                                      !- Inlet Port

OS:Space,
  {1bfc91c4-f18a-456e-b39d-0d4a1a907a45}, !- Handle
  FrontStairsFlr2,                        !- Name
  {3ed7a219-7dda-41c2-a27b-7adb7e93a3d4}, !- Space Type Name
  ,                                       !- Default Construction Set Name
  ,                                       !- Default Schedule Set Name
  0,                                      !- Direction of Relative North {deg}
  0,                                      !- X Origin {m}
  0,                                      !- Y Origin {m}
  0,                                      !- Z Origin {m}
  {64fa6f7e-85e6-47e6-ac14-a191ce9fe253}, !- Building Story Name
  {1e581179-baa1-45b2-92c9-3dea15d1f3ee}; !- Thermal Zone Name

OS:Surface,
  {16a71a24-7ba9-4fbc-9307-bcfaf92702cc}, !- Handle
  F_GuestRoom320_323_10177_0_10098,       !- Name
  Floor,                                  !- Surface Type
  ,                                       !- Construction Name
  {4160cb4c-7f40-4de5-8119-2144b2cc25c5}, !- Space Name
  Surface,                                !- Outside Boundary Condition
  {d6e921d4-a16f-4a33-ac3d-ccf4bb7c7513}, !- Outside Boundary Condition Object
  NoSun,                                  !- Sun Exposure
  NoWind,                                 !- Wind Exposure
  ,                                       !- View Factor to Ground
  ,                                       !- Number of Vertices
  23.82308442, 18.33742922, 6.096,        !- X,Y,Z Vertex 1 {m}
  23.82308442, 10.10782922, 6.096,        !- X,Y,Z Vertex 2 {m}
  7.97348442, 10.10782922, 6.096,         !- X,Y,Z Vertex 3 {m}
  7.97348442, 18.33742922, 6.096;         !- X,Y,Z Vertex 4 {m}

OS:Connection,
  {3a2ecc4c-5450-4e83-9f03-66f56e0b678b}, !- Handle
  ,                                       !- Source Object
  11,                                     !- Outlet Port
  ,                                       !- Target Object
  2;                                      !- Inlet Port

OS:Space,
  {4160cb4c-7f40-4de5-8119-2144b2cc25c5}, !- Handle
  GuestRoom320_323,                       !- Name
  {5ca86fce-20c3-46c4-a378-d293b01c9aac}, !- Space Type Name
  ,                                       !- Default Construction Set Name
  ,                                       !- Default Schedule Set Name
  0,                                      !- Direction of Relative North {deg}
  0,                                      !- X Origin {m}
  0,                                      !- Y Origin {m}
  0,                                      !- Z Origin {m}
  {a0267c62-2b20-48a3-a3ac-400cdbdf753f}, !- Building Story Name
  {4fa5a7d0-1cd4-4628-a473-af808f2ae632}; !- Thermal Zone Name

OS:Surface,
  {3caf56a8-8123-4ef5-9c41-ee66fbfa3119}, !- Handle
  P_FrontStorageFlr1_10088_0_10056,       !- Name
  Wall,                                   !- Surface Type
  ,                                       !- Construction Name
  {4b2c1c60-44e4-4035-9436-d5611d6f0b0e}, !- Space Name
  Surface,                                !- Outside Boundary Condition
  {11a68b72-c441-4d7f-ab3f-479b94ce28bc}, !- Outside Boundary Condition Object
  NoSun,                                  !- Sun Exposure
  NoWind,                                 !- Wind Exposure
  ,                                       !- View Factor to Ground
  ,                                       !- Number of Vertices
  4.011084424, 10.10782922, 3.3528,       !- X,Y,Z Vertex 1 {m}
  4.011084424, 10.10782922, 0,            !- X,Y,Z Vertex 2 {m}
  4.011084424, 18.33742922, 0,            !- X,Y,Z Vertex 3 {m}
  4.011084424, 18.33742922, 3.3528;       !- X,Y,Z Vertex 4 {m}

OS:Connection,
  {fda5e5ee-bb76-4e9e-b867-0030d01a4114}, !- Handle
  ,                                       !- Source Object
  11,                                     !- Outlet Port
  ,                                       !- Target Object
  2;                                      !- Inlet Port

OS:Space,
  {4b2c1c60-44e4-4035-9436-d5611d6f0b0e}, !- Handle
  FrontStorageFlr1,                       !- Name
  {462ff843-73d9-42a2-84d2-455016972b92}, !- Space Type Name
  ,                                       !- Default Construction Set Name
  ,                                       !- Default Schedule Set Name
  0,                                      !- Direction of Relative North {deg}
  0,                                      !- X Origin {m}
  0,                                      !- Y Origin {m}
  0,                                      !- Z Origin {m}
  {ecca0920-11a7-47b2-a376-103d79332642}, !- Building Story Name
  {71ba8296-5bd6-49b3-9785-5422408b608f}; !- Thermal Zone Name

OS:Connection,
  {00de4710-11d6-44e5-906e-f7fd9f750a42}, !- Handle
  ,                                       !- Source Object
  11,                                     !- Outlet Port
  ,                                       !- Target Object
  2;                                      !- Inlet Port

OS:Space,
  {e80c37ba-d8e3-4b27-87c8-4e4091f4d18f}, !- Handle
  GuestRoom105,                           !- Name
  {5ca86fce-20c3-46c4-a378-d293b01c9aac}, !- Space Type Name
  ,                                       !- Default Construction Set Name
  ,                                       !- Default Schedule Set Name
  0,                                      !- Direction of Relative North {deg}
  0,                                      !- X Origin {m}
  0,                                      !- Y Origin {m}
  0,                                      !- Z Origin {m}
  {ecca0920-11a7-47b2-a376-103d79332642}, !- Building Story Name
  {f12fb9e4-1ae9-43a7-80d4-27006c29405d}; !- Thermal Zone Name

OS:Connection,
  {f09bbd4d-6b85-4a8a-97e7-c549a7b887b5}, !- Handle
  ,                                       !- Source Object
  11,                                     !- Outlet Port
  ,                                       !- Target Object
  2;                                      !- Inlet Port

OS:Space,
  {4803251a-3f60-4748-915b-5b4e6edcbb57}, !- Handle
  GuestRoom419,                           !- Name
  {5ca86fce-20c3-46c4-a378-d293b01c9aac}, !- Space Type Name
  ,                                       !- Default Construction Set Name
  ,                                       !- Default Schedule Set Name
  0,                                      !- Direction of Relative North {deg}
  0,                                      !- X Origin {m}
  0,                                      !- Y Origin {m}
  0,                                      !- Z Origin {m}
  {598930d2-37e5-42f6-916a-59beb3aebe45}, !- Building Story Name
  {8a40ae2c-dcae-497f-bae6-f8a963476666}; !- Thermal Zone Name

OS:Surface,
  {d8af1ad0-09b4-4e7f-af93-f04cbeb9552b}, !- Handle
  S_CorridorFlr1_0_0_0,                   !- Name
  Floor,                                  !- Surface Type
  ,                                       !- Construction Name
  {663c7a10-7b04-4537-baa8-c6a88ea5b0d3}, !- Space Name
  Ground,                                 !- Outside Boundary Condition
  ,                                       !- Outside Boundary Condition Object
  NoSun,                                  !- Sun Exposure
  NoWind,                                 !- Wind Exposure
  ,                                       !- View Factor to Ground
  ,                                       !- Number of Vertices
  26.8710844241, 18.3374292198, 0,        !- X,Y,Z Vertex 1 {m}
  26.8710844241, 10.1078292198, 0,        !- X,Y,Z Vertex 2 {m}
  54.9132684242, 10.1078292198, 0,        !- X,Y,Z Vertex 3 {m}
  54.9132684242, 8.2790292198, 0,         !- X,Y,Z Vertex 4 {m}
  26.8710844241, 8.2790292198, 0,         !- X,Y,Z Vertex 5 {m}
  26.8710844241, 0.0488452197, 0,         !- X,Y,Z Vertex 6 {m}
  23.8230844241, 0.0488452197, 0,         !- X,Y,Z Vertex 7 {m}
  23.8230844241, 8.2790292198, 0,         !- X,Y,Z Vertex 8 {m}
  0.048684424, 8.2790292198, 0,           !- X,Y,Z Vertex 9 {m}
  0.048684424, 10.1078292198, 0,          !- X,Y,Z Vertex 10 {m}
  23.8230844241, 10.1078292198, 0,        !- X,Y,Z Vertex 11 {m}
  23.8230844241, 18.3374292198, 0;        !- X,Y,Z Vertex 12 {m}

OS:Connection,
  {3741890d-4b20-4e88-b8ed-dec97dba7e46}, !- Handle
  ,                                       !- Source Object
  11,                                     !- Outlet Port
  ,                                       !- Target Object
  2;                                      !- Inlet Port

OS:Space,
  {663c7a10-7b04-4537-baa8-c6a88ea5b0d3}, !- Handle
  CorridorFlr1,                           !- Name
  {7cd7e6cd-0ad8-4a4f-89f8-1819ca4f265c}, !- Space Type Name
  ,                                       !- Default Construction Set Name
  ,                                       !- Default Schedule Set Name
  0,                                      !- Direction of Relative North {deg}
  0,                                      !- X Origin {m}
  0,                                      !- Y Origin {m}
  0,                                      !- Z Origin {m}
  {ecca0920-11a7-47b2-a376-103d79332642}, !- Building Story Name
  {5f13167c-acee-47fa-9384-154e252fd238}; !- Thermal Zone Name

OS:Connection,
  {86dc8868-0a46-4570-aa7c-1f8850f4fb61}, !- Handle
  ,                                       !- Source Object
  11,                                     !- Outlet Port
  ,                                       !- Target Object
  2;                                      !- Inlet Port

OS:Space,
  {4f1a062c-c10c-4c1c-abe2-f9adedcfdd8b}, !- Handle
  GuestRoom402_405,                       !- Name
  {5ca86fce-20c3-46c4-a378-d293b01c9aac}, !- Space Type Name
  ,                                       !- Default Construction Set Name
  ,                                       !- Default Schedule Set Name
  0,                                      !- Direction of Relative North {deg}
  0,                                      !- X Origin {m}
  0,                                      !- Y Origin {m}
  0,                                      !- Z Origin {m}
  {598930d2-37e5-42f6-916a-59beb3aebe45}, !- Building Story Name
  {94e3700c-dae6-4bd8-941a-33b62e0bea8a}; !- Thermal Zone Name

OS:Connection,
  {317e4273-ca93-48d3-87f5-864b8f20ab58}, !- Handle
  ,                                       !- Source Object
  11,                                     !- Outlet Port
  ,                                       !- Target Object
  2;                                      !- Inlet Port

OS:Space,
  {93e2a0a3-3d7b-43de-9044-00f7514c2ffa}, !- Handle
  GuestRoom224,                           !- Name
  {5ca86fce-20c3-46c4-a378-d293b01c9aac}, !- Space Type Name
  ,                                       !- Default Construction Set Name
  ,                                       !- Default Schedule Set Name
  0,                                      !- Direction of Relative North {deg}
  0,                                      !- X Origin {m}
  0,                                      !- Y Origin {m}
  0,                                      !- Z Origin {m}
  {64fa6f7e-85e6-47e6-ac14-a191ce9fe253}, !- Building Story Name
  {d9f4a750-b539-452f-be06-6bc736362eda}; !- Thermal Zone Name

OS:Surface,
  {5114dafc-720e-4c92-a39f-5465873140fd}, !- Handle
  P_RearStorageFlr3_4_0_0,                !- Name
  Wall,                                   !- Surface Type
  ,                                       !- Construction Name
  {ca87098f-56ad-44d7-82a4-672cf235733f}, !- Space Name
  Surface,                                !- Outside Boundary Condition
  {551d9da8-17d7-48a8-9f7f-97250d99333e}, !- Outside Boundary Condition Object
  NoSun,                                  !- Sun Exposure
  NoWind,                                 !- Wind Exposure
  ,                                       !- View Factor to Ground
  ,                                       !- Number of Vertices
  52.4742844242, 8.27902922, 8.8392,      !- X,Y,Z Vertex 1 {m}
  52.4742844242, 8.27902922, 6.096,       !- X,Y,Z Vertex 2 {m}
  52.4742844242, 0.04884522, 6.096,       !- X,Y,Z Vertex 3 {m}
  52.4742844242, 0.04884522, 8.8392;      !- X,Y,Z Vertex 4 {m}

OS:Connection,
  {9c3d00da-2cfb-4e4b-9bd9-5355ba63723c}, !- Handle
  ,                                       !- Source Object
  11,                                     !- Outlet Port
  ,                                       !- Target Object
  2;                                      !- Inlet Port

OS:Space,
  {ca87098f-56ad-44d7-82a4-672cf235733f}, !- Handle
  RearStorageFlr3,                        !- Name
  {462ff843-73d9-42a2-84d2-455016972b92}, !- Space Type Name
  ,                                       !- Default Construction Set Name
  ,                                       !- Default Schedule Set Name
  0,                                      !- Direction of Relative North {deg}
  0,                                      !- X Origin {m}
  0,                                      !- Y Origin {m}
  0,                                      !- Z Origin {m}
  {a0267c62-2b20-48a3-a3ac-400cdbdf753f}, !- Building Story Name
  {c518ffef-de9f-49c6-9ae9-3df0dec55316}; !- Thermal Zone Name

OS:Surface,
  {407a1918-9bd3-46a1-a430-28fe78bbb6cf}, !- Handle
  P_CorridorFlr2_16_0_0,                  !- Name
  Wall,                                   !- Surface Type
  ,                                       !- Construction Name
  {00a26ae5-1835-4e67-bf63-ff3980d68bef}, !- Space Name
  Surface,                                !- Outside Boundary Condition
  {26e7ee5b-3e1e-4fd9-8da0-859ee9868630}, !- Outside Boundary Condition Object
  NoSun,                                  !- Sun Exposure
  NoWind,                                 !- Wind Exposure
  ,                                       !- View Factor to Ground
  ,                                       !- Number of Vertices
  0.04868442, 8.2790292198, 6.096,        !- X,Y,Z Vertex 1 {m}
  0.04868442, 8.2790292198, 3.3528,       !- X,Y,Z Vertex 2 {m}
  4.01108442, 8.2790292198, 3.3528,       !- X,Y,Z Vertex 3 {m}
  4.01108442, 8.2790292198, 6.096;        !- X,Y,Z Vertex 4 {m}

OS:Surface,
  {56e24e6f-be3d-456a-927b-b20907ce0e06}, !- Handle
  P_MechanicalRoomFlr1_10023_0_10021,     !- Name
  Wall,                                   !- Surface Type
  ,                                       !- Construction Name
  {bab6abf9-2a5f-4da1-819e-9f8cfd12025b}, !- Space Name
  Surface,                                !- Outside Boundary Condition
  {996d4f65-b483-4b05-90a6-24fcd5ab58cc}, !- Outside Boundary Condition Object
  NoSun,                                  !- Sun Exposure
  NoWind,                                 !- Wind Exposure
  ,                                       !- View Factor to Ground
  ,                                       !- Number of Vertices
  40.58708442, 8.2790292198, 3.3528,      !- X,Y,Z Vertex 1 {m}
  40.58708442, 8.2790292198, 0,           !- X,Y,Z Vertex 2 {m}
  36.62468442, 8.2790292198, 0,           !- X,Y,Z Vertex 3 {m}
  36.62468442, 8.2790292198, 3.3528;      !- X,Y,Z Vertex 4 {m}

OS:Connection,
  {fd69f861-bd8a-4845-af5f-af8778a504bb}, !- Handle
  ,                                       !- Source Object
  11,                                     !- Outlet Port
  ,                                       !- Target Object
  2;                                      !- Inlet Port

OS:Space,
  {bab6abf9-2a5f-4da1-819e-9f8cfd12025b}, !- Handle
  MechanicalRoomFlr1,                     !- Name
  {f4f03fab-acd3-46d7-a05a-53c1d612a395}, !- Space Type Name
  ,                                       !- Default Construction Set Name
  ,                                       !- Default Schedule Set Name
  0,                                      !- Direction of Relative North {deg}
  0,                                      !- X Origin {m}
  0,                                      !- Y Origin {m}
  0,                                      !- Z Origin {m}
  {ecca0920-11a7-47b2-a376-103d79332642}, !- Building Story Name
  {8c4f824e-97ba-43f5-a6e0-2a7ced27dc65}; !- Thermal Zone Name

OS:Surface,
  {e315e3aa-07e4-495a-81c8-3111fe79ec28}, !- Handle
  S_GuestRoom103_0_0_0,                   !- Name
  Floor,                                  !- Surface Type
  ,                                       !- Construction Name
  {c3815c02-c039-40d5-bd9e-3aa8723ae1f6}, !- Space Name
  Ground,                                 !- Outside Boundary Condition
  ,                                       !- Outside Boundary Condition Object
  NoSun,                                  !- Sun Exposure
  NoWind,                                 !- Wind Exposure
  ,                                       !- View Factor to Ground
  ,                                       !- Number of Vertices
  52.4742844242, 8.2790292198, 0,         !- X,Y,Z Vertex 1 {m}
  52.4742844242, 0.0488452197, 0,         !- X,Y,Z Vertex 2 {m}
  48.5118844242, 0.0488452197, 0,         !- X,Y,Z Vertex 3 {m}
  48.5118844242, 8.2790292198, 0;         !- X,Y,Z Vertex 4 {m}

OS:Connection,
  {c426a891-6365-49ad-bf5c-ba44b8cb7ff4}, !- Handle
  ,                                       !- Source Object
  11,                                     !- Outlet Port
  ,                                       !- Target Object
  2;                                      !- Inlet Port

OS:Space,
  {2d4b6e12-d4bf-4424-97bb-a740e66cd852}, !- Handle
  GuestRoom420_423,                       !- Name
  {5ca86fce-20c3-46c4-a378-d293b01c9aac}, !- Space Type Name
  ,                                       !- Default Construction Set Name
  ,                                       !- Default Schedule Set Name
  0,                                      !- Direction of Relative North {deg}
  0,                                      !- X Origin {m}
  0,                                      !- Y Origin {m}
  0,                                      !- Z Origin {m}
  {598930d2-37e5-42f6-916a-59beb3aebe45}, !- Building Story Name
  {f43d5243-75ea-4a25-9de5-fa5263cd4e06}; !- Thermal Zone Name

OS:SubSurface,
  {140d3da4-4d2d-4160-bb2b-744f8a12e2c2}, !- Handle
  W_GuestRoom302_305_5_0_0_0_0,           !- Name
  FixedWindow,                            !- Sub Surface Type
  ,                                       !- Construction Name
  {b021f7b7-e622-4aca-bce7-1b63724f0d47}, !- Surface Name
  ,                                       !- Outside Boundary Condition Object
  ,                                       !- View Factor to Ground
  ,                                       !- Frame and Divider Name
  1,                                      !- Multiplier
  ,                                       !- Number of Vertices
  5.422684424, 0.0488452197, 8.1896,      !- X,Y,Z Vertex 1 {m}
  5.422684424, 0.0488452197, 6.7456,      !- X,Y,Z Vertex 2 {m}
  6.561884424, 0.0488452197, 6.7456,      !- X,Y,Z Vertex 3 {m}