
OS:Version,
  {41a7321f-d96b-4579-9282-aba20dfba284}, !- Handle
  1.5.0;                                  !- Version Identifier

OS:Schedule:Constant,
  {5362ad87-1b35-4912-9c6a-e637bd4c4ffd}, !- Handle
  Always On Discrete,                     !- Name
  {774a102c-20dc-4c33-8bcd-fcfec334c425}, !- Schedule Type Limits Name
  1;                                      !- Value

OS:ScheduleTypeLimits,
  {774a102c-20dc-4c33-8bcd-fcfec334c425}, !- Handle
  Always On Discrete Limits,              !- Name
  0,                                      !- Lower Limit Value {BasedOnField A4}
  1,                                      !- Upper Limit Value {BasedOnField A4}
  Discrete,                               !- Numeric Type
  Availability;                           !- Unit Type

OS:Construction,
  {a4707411-1a3e-43c1-b1c3-26a5dadf04f2}, ! Handle
  000 ExtSlabCarpet 4in ClimateZone 1-8,  ! Name
  {3ac3ab6e-838a-4987-a923-7ed16f076f1c}, ! Surface Rendering Name
  {8984dd43-df62-4d44-ae87-bc2bd2873b0e}, ! Layer 1
  {cf43fad8-0e82-4f83-ae04-66d40df51c35}; ! Layer 2

OS:Construction,
  {b09a8a1c-d2ef-47c1-87d1-ebed9781986c}, ! Handle
  000 Exterior Door,                      ! Name
  {336262c3-ed6f-4bd5-bd5b-d932449932e2}, ! Surface Rendering Name
  {ab2b6805-18a2-4e07-a2cb-4572d04f6890}, ! Layer 1
  {fe097386-a229-4196-90e2-4a422c321f26}; ! Layer 2

OS:Construction,
  {bf7a6673-5c75-47b0-9fb8-67dd3c74f3df}, ! Handle
  000 Exterior Window,                    ! Name
  {5258d57d-6d17-494e-9c3b-4c56919ea2f6}, ! Surface Rendering Name
  {f1c02e84-56ed-458b-88f2-c04a48b49010}, ! Layer 1
  {e206938a-22d6-40d6-a854-d669000ee30e}, ! Layer 2
  {f1c02e84-56ed-458b-88f2-c04a48b49010}; ! Layer 3

OS:Construction,
  {c9ec5036-78a9-455e-b264-b2a62182a6b1}, ! Handle
  000 Interior Ceiling,                   ! Name
  {d215b2b0-0241-4ad0-b07c-0df46d01f486}, ! Surface Rendering Name
  {f5ff5b8a-abba-4c43-b424-7ce4541deb2e}, ! Layer 1
  {7046c4c7-d903-44e8-85a6-633f6dfd0880}, ! Layer 2
  {364c7d39-64f6-45c6-a3b5-715541cdf78c}; ! Layer 3

OS:Construction,
  {0450d37d-52f1-4423-96c9-b8c2cad4782f}, ! Handle
  000 Interior Door,                      ! Name
  {10b662a5-17eb-4067-8ab6-1c6c92619ced}, ! Surface Rendering Name
  {2d8c20fd-e8a4-44df-b399-58414f1b82da}; ! Layer 1

OS:Construction,
  {93349841-d95e-46e4-93eb-90902241d529}, ! Handle
  000 Interior Floor,                     ! Name
  {994d202e-504a-4148-84f1-46b26fd74ce7}, ! Surface Rendering Name
  {364c7d39-64f6-45c6-a3b5-715541cdf78c}, ! Layer 1
  {7046c4c7-d903-44e8-85a6-633f6dfd0880}, ! Layer 2
  {f5ff5b8a-abba-4c43-b424-7ce4541deb2e}; ! Layer 3

OS:Construction,
  {b823a257-780f-4555-a887-40683e3a9161}, ! Handle
  000 Interior Partition,                 ! Name
  {3345a47f-3148-4884-93eb-8d5a5a0a785d}, ! Surface Rendering Name
  {2d8c20fd-e8a4-44df-b399-58414f1b82da}; ! Layer 1

OS:Construction,
  {3926bc23-cb28-4481-bed7-a8959aa9784e}, ! Handle
  000 Interior Wall,                      ! Name
  {a4e4bf50-8f71-4600-993d-4ea1ca2afada}, ! Surface Rendering Name
  {29d7f267-ab87-4d62-8306-440e6f53637e}, ! Layer 1
  {b5810d0b-c582-4615-81dc-b681455a0b89}, ! Layer 2
  {29d7f267-ab87-4d62-8306-440e6f53637e}; ! Layer 3

OS:Construction,
  {3506a07b-6579-4526-86ca-84b833269727}, ! Handle
  000 Interior Window,                    ! Name
  {6a66ec3d-9ebd-481c-931c-fad8647d508d}, ! Surface Rendering Name
  {f1c02e84-56ed-458b-88f2-c04a48b49010}; ! Layer 1

OS:Construction,
  {a8ec8d46-f820-4692-b7d1-8346031294e7}, ! Handle
  ASHRAE 189.1-2009 ExtRoof IEAD ClimateZone 2-5, ! Name
  {00efa528-c739-4942-bb54-971e350d5081}, ! Surface Rendering Name
  {c5f0408f-a551-46fc-bb2a-66e8fe03a7e4}, ! Layer 1
  {18b72934-41b6-4f32-a5f4-8b7a91e77efd}, ! Layer 2
  {fcb365fd-eecd-4d24-85d7-1f03e46a153f}; ! Layer 3

OS:Construction,
  {d3f0263a-db9d-4775-bdee-fb25f77960c4}, ! Handle
  ASHRAE 189.1-2009 ExtWall SteelFrame ClimateZone 4-8, ! Name
  {6d1599e9-d10c-498e-a73e-8cbb2dcd9066}, ! Surface Rendering Name
  {ef054e0e-b819-4df7-af1e-4bced2204c22}, ! Layer 1
  {23728136-9ebb-48c4-8d6a-634b96902763}, ! Layer 2
  {dd291baf-0dfd-4dc8-9861-b87566b1ebe7}; ! Layer 3

OS:Construction,
  {86ecef4a-09f4-496e-8a5c-bbf1c9bc67d7}, ! Handle
  ASHRAE 189.1-2009 ExtWindow ClimateZone 4-5, ! Name
  {d43e1bbd-8f3c-4474-9188-3505c2d039e8}, ! Surface Rendering Name
  {21af3466-d55f-4752-adcd-d84768abc6a2}; ! Layer 1

OS:Construction,
  {4a86e3b0-a80f-45b5-bafa-021eb73eb53c}, ! Handle
  Air Wall,                               ! Name
  {f16d79c6-23ca-4509-a014-2175d9ec5914}, ! Surface Rendering Name
  {1fe29fd1-e434-43da-9987-3e0281921913}; ! Layer 1

OS:DefaultScheduleSet,
  {2570f7fd-b7d1-44dd-aa85-c4a6191683d9}, ! Handle
  MediumOffice Schedules,                 ! Name
  ,                                       ! Hours of Operation Schedule Name
  {34919a6f-e6d8-47b8-b201-824c95e09ae4}, ! Number of People Schedule Name
  {104f68c3-b4b9-47ab-991e-8172073916a8}, ! People Activity Level Schedule Name
  {0aa9a306-4ed4-43fa-87dd-b9d7c06edc84}, ! Lighting Schedule Name
  {9fdd0eef-5ec6-41fd-85aa-d69720564a22}, ! Electric Equipment Schedule Name
  ,                                       ! Gas Equipment Schedule Name
  ,                                       ! Hot Water Equipment Schedule Name
  {1815dc4a-c907-4ffb-9942-3ff084ece1be}, ! Infiltration Schedule Name
  ,                                       ! Steam Equipment Schedule Name
  ;                                       ! Other Equipment Schedule Name

OS:Facility,
  {cf302468-3453-4b1f-a1ed-b05a0da3cd5c}; ! Handle

OS:Material,
  {ab2b6805-18a2-4e07-a2cb-4572d04f6890}, ! Handle
  000 F08 Metal surface,                  ! Name
  Smooth,                                 ! Roughness
  0.00080000000000000004,                 ! Thickness
  45.280000000000001,                     ! Conductivity
  7824,                                   ! Density
  500;                                    ! Specific Heat

OS:Material,
  {364c7d39-64f6-45c6-a3b5-715541cdf78c}, ! Handle
  000 F16 Acoustic tile,                  ! Name
  MediumSmooth,                           ! Roughness
  0.019099999999999999,                   ! Thickness
  0.059999999999999998,                   ! Conductivity
  368,                                    ! Density
  590;                                    ! Specific Heat

OS:Material,
  {29d7f267-ab87-4d62-8306-440e6f53637e}, ! Handle
  000 G01a 19mm gypsum board,             ! Name
  MediumSmooth,                           ! Roughness
  0.019,                                  ! Thickness
  0.16,                                   ! Conductivity
  800,                                    ! Density
  1090;                                   ! Specific Heat

OS:Material,
  {2d8c20fd-e8a4-44df-b399-58414f1b82da}, ! Handle
  000 G05 25mm wood,                      ! Name
  MediumSmooth,                           ! Roughness
  0.025399999999999999,                   ! Thickness
  0.14999999999999999,                    ! Conductivity
  608,                                    ! Density
  1630;                                   ! Specific Heat

OS:Material,
  {fe097386-a229-4196-90e2-4a422c321f26}, ! Handle
  000 I01 25mm insulation board,          ! Name
  MediumRough,                            ! Roughness
  0.025399999999999999,                   ! Thickness
  0.029999999999999999,                   ! Conductivity
  43,                                     ! Density
  1210;                                   ! Specific Heat

OS:Material,
  {f5ff5b8a-abba-4c43-b424-7ce4541deb2e}, ! Handle
  000 M11 100mm lightweight concrete,     ! Name
  MediumRough,                            ! Roughness
  0.1016,                                 ! Thickness
  0.53000000000000003,                    ! Conductivity
  1280,                                   ! Density
  840;                                    ! Specific Heat

OS:Material,
  {dd291baf-0dfd-4dc8-9861-b87566b1ebe7}, ! Handle
  1/2IN Gypsum,                           ! Name
  Smooth,                                 ! Roughness
  0.012699999999999999,                   ! Thickness
  0.16,                                   ! Conductivity
  784.89999999999998,                     ! Density
  830,                                    ! Specific Heat
  0.90000000000000002,                    ! Thermal Absorptance
  0.92000000000000004,                    ! Solar Absorptance
  0.92000000000000004;                    ! Visible Absorptance

OS:Material,
  {8984dd43-df62-4d44-ae87-bc2bd2873b0e}, ! Handle
  MAT-CC05 4 HW CONCRETE,                 ! Name
  Rough,                                  ! Roughness
  0.1016,                                 ! Thickness
  1.3109999999999999,                     ! Conductivity
  2240,                                   ! Density
  836.79999999999995,                     ! Specific Heat
  0.90000000000000002,                    ! Thermal Absorptance
  0.69999999999999996,                    ! Solar Absorptance
  0.69999999999999996;                    ! Visible Absorptance

OS:Material,
  {fcb365fd-eecd-4d24-85d7-1f03e46a153f}, ! Handle
  Metal Decking,                          ! Name
  MediumSmooth,                           ! Roughness
  0.0015,                                 ! Thickness
  45.006,                                 ! Conductivity
  7680,                                   ! Density
  418.39999999999998,                     ! Specific Heat
  0.90000000000000002,                    ! Thermal Absorptance
  0.69999999999999996,                    ! Solar Absorptance
  0.29999999999999999;                    ! Visible Absorptance

OS:Material,
  {18b72934-41b6-4f32-a5f4-8b7a91e77efd}, ! Handle
  Roof Insulation [21],                   ! Name
  MediumRough,                            ! Roughness
  0.21049999999999999,                    ! Thickness
  0.049000000000000002,                   ! Conductivity
  265,                                    ! Density
  836.79999999999995,                     ! Specific Heat
  0.90000000000000002,                    ! Thermal Absorptance
  0.69999999999999996,                    ! Solar Absorptance
  0.69999999999999996;                    ! Visible Absorptance

OS:Material,
  {c5f0408f-a551-46fc-bb2a-66e8fe03a7e4}, ! Handle
  Roof Membrane,                          ! Name
  VeryRough,                              ! Roughness
  0.0094999999999999998,                  ! Thickness
  0.16,                                   ! Conductivity
  1121.29,                                ! Density
  1460,                                   ! Specific Heat
  0.90000000000000002,                    ! Thermal Absorptance
  0.69999999999999996,                    ! Solar Absorptance
  0.69999999999999996;                    ! Visible Absorptance

OS:Material,
  {23728136-9ebb-48c4-8d6a-634b96902763}, ! Handle
  Wall Insulation [39],                   ! Name
  MediumRough,                            ! Roughness
  0.11840000000000001,                    ! Thickness
  0.044999999999999998,                   ! Conductivity
  265,                                    ! Density
  836.79999999999995,                     ! Specific Heat
  0.90000000000000002,                    ! Thermal Absorptance
  0.69999999999999996,                    ! Solar Absorptance
  0.69999999999999996;                    ! Visible Absorptance

OS:Material:AirGap,
  {b5810d0b-c582-4615-81dc-b681455a0b89}, ! Handle
  000 F04 Wall air space resistance,      ! Name
  0.14999999999999999;                    ! Thermal Resistance

OS:Material:AirGap,
  {7046c4c7-d903-44e8-85a6-633f6dfd0880}, ! Handle
  000 F05 Ceiling air space resistance,   ! Name
  0.17999999999999999;                    ! Thermal Resistance

OS:Material:AirWall,
  {1fe29fd1-e434-43da-9987-3e0281921913}, ! Handle
  OS:Material:AirWall 1;                  ! Name

OS:Material:NoMass,
  {cf43fad8-0e82-4f83-ae04-66d40df51c35}, ! Handle
  CP02 CARPET PAD,                        ! Name
  VeryRough,                              ! Roughness
  0.2165,                                 ! Thermal Resistance
  0.90000000000000002,                    ! Thermal Absorptance
  0.69999999999999996,                    ! Solar Absorptance
  0.80000000000000004;                    ! Visible Absorptance

OS:Material:NoMass,
  {ef054e0e-b819-4df7-af1e-4bced2204c22}, ! Handle
  MAT-SHEATH,                             ! Name
  Rough,                                  ! Roughness
  0.36259999999999998,                    ! Thermal Resistance
  0.90000000000000002,                    ! Thermal Absorptance
  0.69999999999999996,                    ! Solar Absorptance
  0.69999999999999996;                    ! Visible Absorptance

OS:Rendering:Color,
  {3ac3ab6e-838a-4987-a923-7ed16f076f1c}, ! Handle
  000 ExtSlabCarpet 4in ClimateZone 1-8 Color, ! Name
  198.9,                                  ! Rendering Red Value
  0.0,                                    ! Rendering Green Value
  0.0;                                    ! Rendering Blue Value

OS:Rendering:Color,
  {336262c3-ed6f-4bd5-bd5b-d932449932e2}, ! Handle
  000 Exterior Door Color,                ! Name
  124.3125,                               ! Rendering Red Value
  74.5875,                                ! Rendering Green Value
  89.505;                                 ! Rendering Blue Value

OS:Rendering:Color,
  {5258d57d-6d17-494e-9c3b-4c56919ea2f6}, ! Handle
  000 Exterior Window Color,              ! Name
  198.9,                                  ! Rendering Red Value
  0.0,                                    ! Rendering Green Value
  59.6699999999999,                       ! Rendering Blue Value
  ;                                       ! Rendering Alpha Value

OS:Rendering:Color,
  {d215b2b0-0241-4ad0-b07c-0df46d01f486}, ! Handle
  000 Interior Ceiling Color,             ! Name
  219.096,                                ! Rendering Red Value
  142.8,                                  ! Rendering Green Value
  255.0;                                  ! Rendering Blue Value

OS:Rendering:Color,
  {10b662a5-17eb-4067-8ab6-1c6c92619ced}, ! Handle
  000 Interior Door Color,                ! Name
  168.606,                                ! Rendering Red Value
  255.0,                                  ! Rendering Green Value
  142.8;                                  ! Rendering Blue Value

OS:Rendering:Color,
  {994d202e-504a-4148-84f1-46b26fd74ce7}, ! Handle
  000 Interior Floor Color,               ! Name
  255.0,                                  ! Rendering Red Value
  142.8,                                  ! Rendering Green Value
  142.8;                                  ! Rendering Blue Value

OS:Rendering:Color,
  {3345a47f-3148-4884-93eb-8d5a5a0a785d}, ! Handle
  000 Interior Partition Color,           ! Name
  165.24,                                 ! Rendering Red Value
  142.8,                                  ! Rendering Green Value
  255.0;                                  ! Rendering Blue Value

OS:Rendering:Color,
  {a4e4bf50-8f71-4600-993d-4ea1ca2afada}, ! Handle
  000 Interior Wall Color,                ! Name
  142.8,                                  ! Rendering Red Value
  201.144,                                ! Rendering Green Value
  255.0;                                  ! Rendering Blue Value

OS:Rendering:Color,
  {6a66ec3d-9ebd-481c-931c-fad8647d508d}, ! Handle
  000 Interior Window Color,              ! Name
  235.926,                                ! Rendering Red Value
  255.0,                                  ! Rendering Green Value
  142.8;                                  ! Rendering Blue Value

OS:Rendering:Color,
  {ffe7c1fb-032c-4ec1-a24d-8d1e06bad54e}, ! Handle
  ASHRAE 189.1-2009 ClimateZone 4-8 MediumOffice Color, ! Name
  120.36,                                 ! Rendering Red Value
  236.64,                                 ! Rendering Green Value
  201.756;                                ! Rendering Blue Value

OS:Rendering:Color,
  {00efa528-c739-4942-bb54-971e350d5081}, ! Handle
  ASHRAE 189.1-2009 ExtRoof IEAD ClimateZone 2-5 Color, ! Name
  150.1695,                               ! Rendering Red Value
  14.9175,                                ! Rendering Green Value
  183.9825,                               ! Rendering Blue Value
  ;                                       ! Rendering Alpha Value

OS:Rendering:Color,
  {6d1599e9-d10c-498e-a73e-8cbb2dcd9066}, ! Handle
  ASHRAE 189.1-2009 ExtWall SteelFrame ClimateZone 4-8 Color, ! Name
  21.1139999999998,                       ! Rendering Red Value
  17.2125,                                ! Rendering Green Value
  212.2875;                               ! Rendering Blue Value

OS:Rendering:Color,
  {d43e1bbd-8f3c-4474-9188-3505c2d039e8}, ! Handle
  ASHRAE 189.1-2009 ExtWindow ClimateZone 4-5 Color, ! Name
  109.6653,                               ! Rendering Red Value
  238.935,                                ! Rendering Green Value
  56.865,                                 ! Rendering Blue Value
  ;                                       ! Rendering Alpha Value

OS:Rendering:Color,
  {f16d79c6-23ca-4509-a014-2175d9ec5914}, ! Handle
  Air Wall Color,                         ! Name
  255,                                    ! Rendering Red Value
  69,                                     ! Rendering Green Value
  0,                                      ! Rendering Blue Value
  ;                                       ! Rendering Alpha Value

OS:Rendering:Color,
  {dca0f93c-b0ab-49ea-a058-869b6aa0620c}, ! Handle
  Empty Space Type Color,                 ! Name
  128.0,                                  ! Rendering Red Value
  128.0,                                  ! Rendering Green Value
  128.0;                                  ! Rendering Blue Value

OS:RunPeriodControl:DaylightSavingTime,
  {693caa13-3e74-48ae-8045-a3a848c2807a}, ! Handle
  2nd Sunday in March,                    ! Start Date
  1st Sunday in November;                 ! End Date

OS:RunPeriodControl:SpecialDays,
  {01427c50-9f95-4617-88ea-a0e9186837e8}, ! Handle
  Christmas,                              ! Name
  December 25,                            ! Start Date
  1,                                      ! Duration
  Holiday;                                ! Special Day Type

OS:RunPeriodControl:SpecialDays,
  {4f7bd1ef-5d66-416c-b7cd-645da80eb8db}, ! Handle
  Columbus Day,                           ! Name
  2nd Monday in October,                  ! Start Date
  1,                                      ! Duration
  Holiday;                                ! Special Day Type

OS:RunPeriodControl:SpecialDays,
  {c89b3655-49ce-4e5d-97c9-b2095fd6db9c}, ! Handle
  Independence Day,                       ! Name
  July 4,                                 ! Start Date
  1,                                      ! Duration
  Holiday;                                ! Special Day Type

OS:RunPeriodControl:SpecialDays,
  {bc7c5297-77e3-4f10-bc89-f8f14a796e35}, ! Handle
  Labor Day,                              ! Name
  1st Monday in September,                ! Start Date
  1,                                      ! Duration
  Holiday;                                ! Special Day Type

OS:RunPeriodControl:SpecialDays,
  {d5293439-b4e0-42c4-ae8f-39daf0fa9e60}, ! Handle
  MLK Day,                                ! Name
  3rd Monday in January,                  ! Start Date
  1,                                      ! Duration
  Holiday;                                ! Special Day Type

OS:RunPeriodControl:SpecialDays,
  {5053f38e-2fe7-4c10-afbd-cc1965219b26}, ! Handle
  Memorial Day,                           ! Name
  Last Monday in May,                     ! Start Date
  1,                                      ! Duration
  Holiday;                                ! Special Day Type

OS:RunPeriodControl:SpecialDays,
  {246c2b99-5ff6-48d4-a556-71bb50fed76b}, ! Handle
  New Years Day,                          ! Name
  January 1,                              ! Start Date
  1,                                      ! Duration
  Holiday;                                ! Special Day Type

OS:RunPeriodControl:SpecialDays,
  {086bd7a3-d72e-44c0-acc9-70d041c4c2f5}, ! Handle
  Presidents Day,                         ! Name
  3rd Monday in February,                 ! Start Date
  1,                                      ! Duration
  Holiday;                                ! Special Day Type

OS:RunPeriodControl:SpecialDays,
  {675b176b-6342-4e06-9b76-f297a6b58c55}, ! Handle
  Thanksgiving,                           ! Name
  4th Thursday in November,               ! Start Date
  1,                                      ! Duration
  Holiday;                                ! Special Day Type

OS:RunPeriodControl:SpecialDays,
  {4d4d7ba3-4fd8-4f69-9194-9b7ffe61cc8d}, ! Handle
  Veterans Day,                           ! Name
  November 11,                            ! Start Date
  1,                                      ! Duration
  Holiday;                                ! Special Day Type

OS:ScheduleTypeLimits,
  {a36b9707-67e9-4ac7-87d8-bca1cdc8d977}, ! Handle
  Any Number;                             ! Name

OS:ScheduleTypeLimits,
  {d5de7a23-6ee1-4151-a263-1bfb8dd0a2ce}, ! Handle
  Control Type,                           ! Name
  0,                                      ! Lower Limit Value
  4,                                      ! Upper Limit Value
  DISCRETE;                               ! Numeric Type

OS:ScheduleTypeLimits,
  {34a5bba4-16c2-43a7-83db-1840d06ef230}, ! Handle
  Fraction,                               ! Name
  0,                                      ! Lower Limit Value
  1,                                      ! Upper Limit Value
  CONTINUOUS;                             ! Numeric Type

OS:ScheduleTypeLimits,
  {860056cb-f9ed-447b-aaaf-630c68f1cc0e}, ! Handle
  On/Off,                                 ! Name
  0,                                      ! Lower Limit Value
  1,                                      ! Upper Limit Value
  DISCRETE;                               ! Numeric Type

OS:SimulationControl,
  {657ba578-29ab-439c-87b6-218865343bf2}, ! Handle
  Yes,                                    ! Do Zone Sizing Calculation
  Yes,                                    ! Do System Sizing Calculation
  Yes,                                    ! Do Plant Sizing Calculation
  Yes,                                    ! Run Simulation for Sizing Periods
  Yes,                                    ! Run Simulation for Weather File Run Periods
  0.040000000000000001,                   ! Loads Convergence Tolerance Value
  0.40000000000000002,                    ! Temperature Convergence Tolerance Value
  FullExterior,                           ! Solar Distribution
  25;                                     ! Maximum Number of Warmup Days

OS:ThermostatSetpoint:DualSetpoint,
  {c88ac18f-c615-49c3-9fcc-d0b9ae67be58}, ! Handle
  Medium Office Thermostat,               ! Name
  {694cceca-1b0f-4555-b96e-1d68a1080f78}, ! Heating Setpoint Temperature Schedule Name
  {cf910c2b-7c8a-463b-a623-5a7996457a2d}; ! Cooling Setpoint Temperature Schedule Name

OS:Timestep,
  {8a10f874-3682-42ca-98c2-f4b68d8deb26}, ! Handle
  4;                                      ! Number of Timesteps per Hour

OS:WindowMaterial:Gas,
  {e206938a-22d6-40d6-a854-d669000ee30e}, ! Handle
  000 Air 13mm,                           ! Name
  Air,                                    ! Gas Type
  0.012699999999999999;                   ! Thickness

OS:WindowMaterial:Glazing,
  {f1c02e84-56ed-458b-88f2-c04a48b49010}, ! Handle
  000 Clear 3mm,                          ! Name
  SpectralAverage,                        ! Optical Data Type
  ,                                       ! Window Glass Spectral Data Set Name
  0.0030000000000000001,                  ! Thickness
  0.83699999999999997,                    ! Solar Transmittance at Normal Incidence
  0.074999999999999997,                   ! Front Side Solar Reflectance at Normal Incidence
  0.074999999999999997,                   ! Back Side Solar Reflectance at Normal Incidence
  0.89800000000000002,                    ! Visible Transmittance at Normal Incidence
  0.081000000000000003,                   ! Front Side Visible Reflectance at Normal Incidence
  0.081000000000000003,                   ! Back Side Visible Reflectance at Normal Incidence
  0,                                      ! Infrared Transmittance at Normal Incidence
  0.83999999999999997,                    ! Front Side Infrared Hemispherical Emissivity
  0.83999999999999997,                    ! Back Side Infrared Hemispherical Emissivity
  0.90000000000000002,                    ! Conductivity
  ,                                       ! Dirt Correction Factor for Solar and Visible Transmittance
  ;                                       ! Solar Diffusing

OS:WindowMaterial:Glazing,
  {21af3466-d55f-4752-adcd-d84768abc6a2}, ! Handle
  Theoretical Glass [207],                ! Name
  SpectralAverage,                        ! Optical Data Type
  ,                                       ! Window Glass Spectral Data Set Name
  0.0030000000000000001,                  ! Thickness
  0.33110000000000001,                    ! Solar Transmittance at Normal Incidence
  0.61890000000000001,                    ! Front Side Solar Reflectance at Normal Incidence
  0.61890000000000001,                    ! Back Side Solar Reflectance at Normal Incidence
  0.44,                                   ! Visible Transmittance at Normal Incidence
  0.51000000000000001,                    ! Front Side Visible Reflectance at Normal Incidence
  0.51000000000000001,                    ! Back Side Visible Reflectance at Normal Incidence
  0,                                      ! Infrared Transmittance at Normal Incidence
  0.90000000000000002,                    ! Front Side Infrared Hemispherical Emissivity
  0.90000000000000002,                    ! Back Side Infrared Hemispherical Emissivity
  0.013299999999999999,                   ! Conductivity
  1,                                      ! Dirt Correction Factor for Solar and Visible Transmittance
  No;                                     ! Solar Diffusing

OS:DesignSpecification:OutdoorAir,
  {1c61d1cd-d199-4946-9ac5-8496d110c280}, ! Handle
  MediumOffice Outdoor Air,               ! Name
  Sum,                                    ! Outdoor Air Method
  0.0107645200000431,                     ! Outdoor Air Flow per Person
  0.0,                                    ! Outdoor Air Flow per Floor Area
  0,                                      ! Outdoor Air Flow Rate
  0,                                      ! Outdoor Air Flow Air Changes per Hour
  ;                                       ! Outdoor Air Flow Rate Fraction Schedule Name

OS:Schedule:Ruleset,
  {1203caec-c2ae-41a2-a1f4-40ebc91052ed}, ! Handle
  Medium Office Clothing,                 ! Name
  {a36b9707-67e9-4ac7-87d8-bca1cdc8d977}, ! Schedule Type Limits Name
  {abf3a7a4-5618-4802-9999-2d404909509e}, ! Default Day Schedule Name
  {657357ea-6c6c-4a3d-b323-fb7fb7beff67}, ! Summer Design Day Schedule Name
  {8c3228ca-0962-4ece-b716-86104f378195}; ! Winter Design Day Schedule Name

OS:Schedule:Day,
  {abf3a7a4-5618-4802-9999-2d404909509e}, ! Handle
  Medium Office Clothing Default Schedule, ! Name
  {a36b9707-67e9-4ac7-87d8-bca1cdc8d977}, ! Schedule Type Limits Name
  ,                                       ! Interpolate to Timestep
  24,                                     !- Hour 1
  0,                                      !- Minute 1
  1;                                      !- Value Until Time 1

OS:Schedule:Day,
  {8c3228ca-0962-4ece-b716-86104f378195}, ! Handle
  Medium Office Clothing Winter Design Day, ! Name
  {a36b9707-67e9-4ac7-87d8-bca1cdc8d977}, ! Schedule Type Limits Name
  ,                                       ! Interpolate to Timestep
  24,                                     ! Hour 1
  0,                                      ! Minute 1
  1;                                      ! Value Until Time 1

OS:Schedule:Rule,
  {93134e4d-2171-49ee-a0f5-e1c7d470aec2}, ! Handle
  Medium Office Clothing Rule 2,          ! Name
  {1203caec-c2ae-41a2-a1f4-40ebc91052ed}, ! Schedule Ruleset Name
  1,                                      ! Rule Order
  {635a4460-73a0-47fe-971d-8530d2aed1f8}, ! Day Schedule Name
  Yes,                                    ! Apply Sunday
  Yes,                                    ! Apply Monday
  Yes,                                    ! Apply Tuesday
  Yes,                                    ! Apply Wednesday
  Yes,                                    ! Apply Thursday
  Yes,                                    ! Apply Friday
  Yes,                                    ! Apply Saturday
  ,                                       ! Apply Holiday
  DateRange,                              ! Date Specification Type
  5,                                      ! Start Month
  1,                                      ! Start Day
  9,                                      ! End Month
  30;                                     ! End Day

OS:Schedule:Day,
  {635a4460-73a0-47fe-971d-8530d2aed1f8}, ! Handle
  Medium Office Clothing Rule 2 Day Schedule, ! Name
  {a36b9707-67e9-4ac7-87d8-bca1cdc8d977}, ! Schedule Type Limits Name
  ,                                       ! Interpolate to Timestep
  24,                                     ! Hour 1
  0,                                      ! Minute 1
  0.5;                                    ! Value Until Time 1

OS:Schedule:Day,
  {657357ea-6c6c-4a3d-b323-fb7fb7beff67}, ! Handle
  Medium Office Clothing Summer Design Day, ! Name
  {a36b9707-67e9-4ac7-87d8-bca1cdc8d977}, ! Schedule Type Limits Name
  ,                                       ! Interpolate to Timestep
  24,                                     ! Hour 1
  0,                                      ! Minute 1
  0.5;                                    ! Value Until Time 1

OS:Schedule:Rule,
  {a0723843-08d2-478a-93c5-b1b5550fb05e}, ! Handle