
OS:Version,
  {dc6e2b3d-a5a4-4500-aef3-0056ff35e521}, !- Handle
  1.8.5;                                  !- Version Identifier

OS:Site,
  {2b5e0c14-86dd-4691-86dd-0bef60938ba3}, !- Handle
  USA IL-CHICAGO-OHARE,                   !- Name
  41.77,                                  !- Latitude {deg}
  -87.75,                                 !- Longitude {deg}
  -6,                                     !- Time Zone {hr}
  190,                                    !- Elevation {m}
  City;                                   !- Terrain

OS:SimulationControl,
  {a75f7dcc-3b42-4e9c-9e81-619a8e0fcf74}, !- Handle
  Yes,                                    !- Do Zone Sizing Calculation
  Yes,                                    !- Do System Sizing Calculation
  Yes,                                    !- Do Plant Sizing Calculation
  No,                                     !- Run Simulation for Sizing Periods
  Yes,                                    !- Run Simulation for Weather File Run Periods
  0.04,                                   !- Loads Convergence Tolerance Value
  0.2,                                    !- Temperature Convergence Tolerance Value {deltaC}
  FullInteriorAndExterior,                !- Solar Distribution
  25,                                     !- Maximum Number of Warmup Days
  6;                                      !- Minimum Number of Warmup Days

OS:Surface,
  {137725a6-bf9f-46a5-baee-62188955d496}, !- Handle
  LGstore2_Wall_4,                        !- Name
  Wall,                                   !- Surface Type
  {9782c2f6-93fb-413e-aa47-56e5f9998c24}, !- Construction Name
  {a372ab07-fa89-41d8-b5d4-08c38b1791f8}, !- Space Name
  Surface,                                !- Outside Boundary Condition
  {b5873991-6e94-4cb7-a131-357bb15f49c1}, !- Outside Boundary Condition Object
  NoSun,                                  !- Sun Exposure
  NoWind,                                 !- Wind Exposure
  ,                                       !- View Factor to Ground
  ,                                       !- Number of Vertices
  60.96, 0, 5.18,                         !- X,Y,Z Vertex 1 {m}
  60.96, 0, 0,                            !- X,Y,Z Vertex 2 {m}
  60.96, 22.86, 0,                        !- X,Y,Z Vertex 3 {m}
  60.96, 22.86, 5.18;                     !- X,Y,Z Vertex 4 {m}

OS:Construction,
  {9782c2f6-93fb-413e-aa47-56e5f9998c24}, !- Handle
  int-walls,                              !- Name
  ,                                       !- Surface Rendering Name
  {3792c9df-a13f-4bd8-9b12-cdd9bcaa874e}, !- Layer 1
  {3792c9df-a13f-4bd8-9b12-cdd9bcaa874e}; !- Layer 2

OS:Material,
  {3792c9df-a13f-4bd8-9b12-cdd9bcaa874e}, !- Handle
  1/2IN Gypsum,                           !- Name
  Smooth,                                 !- Roughness
  0.0127,                                 !- Thickness {m}
  0.16,                                   !- Conductivity {W/m-K}
  784.9,                                  !- Density {kg/m3}
  830,                                    !- Specific Heat {J/kg-K}
  0.9,                                    !- Thermal Absorptance
  0.92,                                   !- Solar Absorptance
  0.92;                                   !- Visible Absorptance

OS:Space,
  {a372ab07-fa89-41d8-b5d4-08c38b1791f8}, !- Handle
  LGstore2,                               !- Name
  {f082a0e3-e65f-42ba-baae-6a340057d22d}, !- Space Type Name
  ,                                       !- Default Construction Set Name
  ,                                       !- Default Schedule Set Name
  0,                                      !- Direction of Relative North {deg}
  0,                                      !- X Origin {m}
  0,                                      !- Y Origin {m}
  0,                                      !- Z Origin {m}
  {e93a65cb-05f1-4b5b-a741-1e770a497a25}, !- Building Story Name
  {c567217e-c6cd-4da0-8931-db96d46d8572}, !- Thermal Zone Name
  Yes,                                    !- Part of Total Floor Area
  {b53fcc63-5b3a-4a5a-96ab-705b3921c2aa}; !- Design Specification Outdoor Air Object Name

OS:ThermostatSetpoint:DualSetpoint,
  {2775cf50-d612-4194-902a-cd064c946cc9}, !- Handle
  {c10791f7-8180-471d-92aa-7a81d019d417}, !- Name
  {b3e65a29-5b93-43b6-9ef0-e2c23a369e08}, !- Heating Setpoint Temperature Schedule Name
  {2276f816-b86e-4301-bc7e-9f49e223889b}; !- Cooling Setpoint Temperature Schedule Name

OS:Schedule:Compact,
  {b3e65a29-5b93-43b6-9ef0-e2c23a369e08}, !- Handle
  HTGSETP_SCH,                            !- Name
  {537d5d23-3f2d-4783-8070-3ee48f816075}, !- Schedule Type Limits Name
  Through: 12/31,                         !- Field 1
  For: Weekdays,                          !- Field 2
  Until: 06:00,                           !- Field 3
  15.6,                                   !- Field 4
  Until: 21:00,                           !- Field 5
  21.0,                                   !- Field 6
  Until: 24:00,                           !- Field 7
  15.6,                                   !- Field 8
  For SummerDesignDay,                    !- Field 9
  Until: 24:00,                           !- Field 10
  15.6,                                   !- Field 11
  For WinterDesignDay,                    !- Field 12
  Until: 24:00,                           !- Field 13
  21.0,                                   !- Field 14
  For: Saturday,                          !- Field 15
  Until: 06:00,                           !- Field 16
  15.6,                                   !- Field 17
  Until: 22:00,                           !- Field 18
  21.0,                                   !- Field 19
  Until: 24:00,                           !- Field 20
  15.6,                                   !- Field 21
  For: AllOtherDays,                      !- Field 22
  Until:  8:00,                           !- Field 23
  15.6,                                   !- Field 24
  Until: 19:00,                           !- Field 25
  21.,                                    !- Field 26
  Until: 24:00,                           !- Field 27
  15.6;                                   !- Field 28

OS:ScheduleTypeLimits,
  {537d5d23-3f2d-4783-8070-3ee48f816075}, !- Handle
  Temperature,                            !- Name
  -60,                                    !- Lower Limit Value {BasedOnField A4}
  200,                                    !- Upper Limit Value {BasedOnField A4}
  CONTINUOUS,                             !- Numeric Type
  Temperature;                            !- Unit Type

OS:Schedule:Compact,
  {2276f816-b86e-4301-bc7e-9f49e223889b}, !- Handle
  CLGSETP_SCH,                            !- Name
  {537d5d23-3f2d-4783-8070-3ee48f816075}, !- Schedule Type Limits Name
  Through: 12/31,                         !- Field 1
  For: Weekdays SummerDesignDay,          !- Field 2
  Until: 06:00,                           !- Field 3
  30.0,                                   !- Field 4
  Until: 21:00,                           !- Field 5
  24.0,                                   !- Field 6
  Until: 24:00,                           !- Field 7
  30.0,                                   !- Field 8
  For: Saturday,                          !- Field 9
  Until: 06:00,                           !- Field 10
  30.0,                                   !- Field 11
  Until: 22:00,                           !- Field 12
  24.0,                                   !- Field 13
  Until: 24:00,                           !- Field 14
  30.0,                                   !- Field 15
  For WinterDesignDay,                    !- Field 16
  Until: 24:00,                           !- Field 17
  30.0,                                   !- Field 18
  For: Sunday Holidays AllOtherDays,      !- Field 19
  Until: 8:00,                            !- Field 20
  30.0,                                   !- Field 21
  Until: 19:00,                           !- Field 22
  24.0,                                   !- Field 23
  Until: 24:00,                           !- Field 24
  30.0;                                   !- Field 25

OS:Meter,
  {2af77a2a-1994-478c-9623-12eb217a8e0f}, !- Handle
  Refrigeration:Electricity,              !- Name
  hourly,                                 !- Reporting Frequency
  False,                                  !- Meter File Only
  False;                                  !- Cumulative

OS:SubSurface,
  {2c7e402b-4c86-4d12-8fe3-32bf6fda7da7}, !- Handle
  SMstore6_Wall_1_Window_1,               !- Name
  FixedWindow,                            !- Sub Surface Type
  {cb397c82-87fa-4e2e-a7a5-cd71482012ff}, !- Construction Name
  {f2c6ec1e-6f47-4aad-8e41-19aeb6ec77aa}, !- Surface Name
  ,                                       !- Outside Boundary Condition Object
  ,                                       !- View Factor to Ground
  ,                                       !- Shading Control Name
  ,                                       !- Frame and Divider Name
  1,                                      !- Multiplier
  ,                                       !- Number of Vertices
  69.19, 0, 2.43,                         !- X,Y,Z Vertex 1 {m}
  69.19, 0, 0.91,                         !- X,Y,Z Vertex 2 {m}
  71.32, 0, 0.91,                         !- X,Y,Z Vertex 3 {m}
  71.32, 0, 2.43;                         !- X,Y,Z Vertex 4 {m}

OS:Construction,
  {cb397c82-87fa-4e2e-a7a5-cd71482012ff}, !- Handle
  Window Non-res Fixed,                   !- Name
  ,                                       !- Surface Rendering Name
  {871a040b-2193-4bf2-96ba-d207ad6dd43c}; !- Layer 1

OS:WindowMaterial:SimpleGlazingSystem,
  {871a040b-2193-4bf2-96ba-d207ad6dd43c}, !- Handle
  NonRes Fixed Assembly Window,           !- Name
  3.23646,                                !- U-Factor {W/m2-K}
  0.39;                                   !- Solar Heat Gain Coefficient

OS:Surface,
  {f2c6ec1e-6f47-4aad-8e41-19aeb6ec77aa}, !- Handle
  SMstore6_Wall_1,                        !- Name
  Wall,                                   !- Surface Type
  {04141ab4-fd88-42ca-8fef-269e72266f0b}, !- Construction Name
  {3d3ca9b5-ab41-464d-9b83-0ba3a0d6e222}, !- Space Name
  Outdoors,                               !- Outside Boundary Condition
  ,                                       !- Outside Boundary Condition Object
  SunExposed,                             !- Sun Exposure
  WindExposed,                            !- Wind Exposure
  ,                                       !- View Factor to Ground
  ,                                       !- Number of Vertices
  68.58, 0, 5.18,                         !- X,Y,Z Vertex 1 {m}
  68.58, 0, 0,                            !- X,Y,Z Vertex 2 {m}
  76.2, 0, 0,                             !- X,Y,Z Vertex 3 {m}
  76.2, 0, 5.18;                          !- X,Y,Z Vertex 4 {m}

OS:Construction,
  {04141ab4-fd88-42ca-8fef-269e72266f0b}, !- Handle
  Steel Frame Non-res Ext Wall,           !- Name
  ,                                       !- Surface Rendering Name
  {63631eca-0e6a-459d-9ba0-74f83563e16f}, !- Layer 1
  {e217ab53-dfa6-43ba-b2e6-b676e4129e9d}, !- Layer 2
  {3792c9df-a13f-4bd8-9b12-cdd9bcaa874e}; !- Layer 3

OS:Material,
  {63631eca-0e6a-459d-9ba0-74f83563e16f}, !- Handle
  Wood Siding,                            !- Name
  MediumSmooth,                           !- Roughness
  0.01,                                   !- Thickness {m}
  0.11,                                   !- Conductivity {W/m-K}
  544.62,                                 !- Density {kg/m3}
  1210,                                   !- Specific Heat {J/kg-K}
  0.9,                                    !- Thermal Absorptance
  0.78,                                   !- Solar Absorptance
  0.78;                                   !- Visible Absorptance

OS:Material,
  {e217ab53-dfa6-43ba-b2e6-b676e4129e9d}, !- Handle
  Steel Frame NonRes Wall Insulation,     !- Name
  MediumRough,                            !- Roughness
  0.0870564552646045,                     !- Thickness {m}
  0.049,                                  !- Conductivity {W/m-K}
  265,                                    !- Density {kg/m3}
  836.8,                                  !- Specific Heat {J/kg-K}
  0.9,                                    !- Thermal Absorptance
  0.7,                                    !- Solar Absorptance
  0.7;                                    !- Visible Absorptance

OS:Space,
  {3d3ca9b5-ab41-464d-9b83-0ba3a0d6e222}, !- Handle
  SMstore6,                               !- Name
  {f082a0e3-e65f-42ba-baae-6a340057d22d}, !- Space Type Name
  ,                                       !- Default Construction Set Name
  ,                                       !- Default Schedule Set Name
  0,                                      !- Direction of Relative North {deg}
  0,                                      !- X Origin {m}
  0,                                      !- Y Origin {m}
  0,                                      !- Z Origin {m}
  {e93a65cb-05f1-4b5b-a741-1e770a497a25}, !- Building Story Name
  {c567217e-c6cd-4da0-8931-db96d46d8572}, !- Thermal Zone Name
  Yes,                                    !- Part of Total Floor Area
  {f8f70e13-04d7-4a0a-a576-795e51706253}; !- Design Specification Outdoor Air Object Name

OS:ThermostatSetpoint:DualSetpoint,
  {5f7bd66b-82eb-414c-908e-0f429a142488}, !- Handle
  {ecbd834f-d04d-4d2e-ab70-530643471fc0}, !- Name
  {b3e65a29-5b93-43b6-9ef0-e2c23a369e08}, !- Heating Setpoint Temperature Schedule Name
  {2276f816-b86e-4301-bc7e-9f49e223889b}; !- Cooling Setpoint Temperature Schedule Name

OS:Meter,
  {226783d9-009c-4824-8b5a-4c7fe564fa76}, !- Handle
  Heating:Electricity,                    !- Name
  hourly,                                 !- Reporting Frequency
  False,                                  !- Meter File Only
  False;                                  !- Cumulative

OS:InternalMass:Definition,
  {577d919c-e695-4990-8546-3b86fd637d7f}, !- Handle
  SMstore3 Internal Mass Definition,      !- Name
  {2351801c-d02a-48ee-9b1d-64196128c753}, !- Construction Name
  SurfaceArea,                            !- Design Level Calculation Method
  348.3864,                               !- Surface Area {m2}
  ,                                       !- Surface Area per Space Floor Area {dimensionless}
  ;                                       !- Surface Area per Person {m2/person}

OS:Construction,
  {2351801c-d02a-48ee-9b1d-64196128c753}, !- Handle
  InteriorFurnishings,                    !- Name
  ,                                       !- Surface Rendering Name
  {feecb115-43c6-40b1-9ef0-c8fe9c88dbe7}; !- Layer 1

OS:Material,
  {feecb115-43c6-40b1-9ef0-c8fe9c88dbe7}, !- Handle
  Std Wood 6inch,                         !- Name
  MediumSmooth,                           !- Roughness
  0.15,                                   !- Thickness {m}
  0.12,                                   !- Conductivity {W/m-K}
  540,                                    !- Density {kg/m3}
  1210,                                   !- Specific Heat {J/kg-K}
  0.9,                                    !- Thermal Absorptance
  0.7,                                    !- Solar Absorptance
  0.7;                                    !- Visible Absorptance

OS:InternalMass,
  {198a2adf-7ee3-4594-9adb-3aec4953e586}, !- Handle
  SMstore3 Internal Mass,                 !- Name
  {577d919c-e695-4990-8546-3b86fd637d7f}, !- Internal Mass Definition Name
  {cb14bcff-d214-4f3c-a7bf-5aaed3c6b69b}; !- Space or SpaceType Name

OS:Space,
  {cb14bcff-d214-4f3c-a7bf-5aaed3c6b69b}, !- Handle
  SMstore3,                               !- Name
  {f082a0e3-e65f-42ba-baae-6a340057d22d}, !- Space Type Name
  ,                                       !- Default Construction Set Name
  ,                                       !- Default Schedule Set Name
  0,                                      !- Direction of Relative North {deg}
  0,                                      !- X Origin {m}
  0,                                      !- Y Origin {m}
  0,                                      !- Z Origin {m}
  {e93a65cb-05f1-4b5b-a741-1e770a497a25}, !- Building Story Name
  {c567217e-c6cd-4da0-8931-db96d46d8572}, !- Thermal Zone Name
  Yes,                                    !- Part of Total Floor Area
  {bbe817bf-73c2-42f2-a5e1-f2c11dc26705}; !- Design Specification Outdoor Air Object Name

OS:ThermostatSetpoint:DualSetpoint,
  {ba63d0e7-ebb0-4b43-92cd-b2ad50bb4e68}, !- Handle
  {680706c4-e1b7-40d9-aac1-ea0ecc2059e8}, !- Name
  {b3e65a29-5b93-43b6-9ef0-e2c23a369e08}, !- Heating Setpoint Temperature Schedule Name
  {2276f816-b86e-4301-bc7e-9f49e223889b}; !- Cooling Setpoint Temperature Schedule Name

OS:Lights:Definition,
  {40a6ed71-dc6d-4b3a-8b1c-76f8755bd846}, !- Handle
  LGstore1_Lights Definition,             !- Name
  Watts/Area,                             !- Design Level Calculation Method
  ,                                       !- Lighting Level {W}
  23.99,                                  !- Watts per Space Floor Area {W/m2}
  ,                                       !- Watts per Person {W/person}
  0.7,                                    !- Fraction Radiant
  0.2,                                    !- Fraction Visible
  0,                                      !- Return Air Fraction
  No;                                     !- Return Air Fraction Calculated from Plenum Temperature

OS:Lights,
  {a2ebc83d-eed4-4762-b43a-b865151d4933}, !- Handle
  LGstore1_Lights,                        !- Name
  {40a6ed71-dc6d-4b3a-8b1c-76f8755bd846}, !- Lights Definition Name
  {63092897-4d22-40d0-a73e-66c27179074a}, !- Space or SpaceType Name
  {a0d941c2-3a89-453e-b252-6cddd21fa030}, !- Schedule Name
  1,                                      !- Fraction Replaceable
  ,                                       !- Multiplier
  General;                                !- End-Use Subcategory

OS:Space,
  {63092897-4d22-40d0-a73e-66c27179074a}, !- Handle
  LGstore1,                               !- Name
  {f082a0e3-e65f-42ba-baae-6a340057d22d}, !- Space Type Name
  ,                                       !- Default Construction Set Name
  ,                                       !- Default Schedule Set Name
  0,                                      !- Direction of Relative North {deg}
  0,                                      !- X Origin {m}
  0,                                      !- Y Origin {m}
  0,                                      !- Z Origin {m}
  {e93a65cb-05f1-4b5b-a741-1e770a497a25}, !- Building Story Name
  {d9741325-561c-4421-b1db-aa422391e208}, !- Thermal Zone Name
  Yes,                                    !- Part of Total Floor Area
  {b0307646-994f-4560-b1e1-dd9cae0ae3db}; !- Design Specification Outdoor Air Object Name

OS:ThermostatSetpoint:DualSetpoint,
  {41c1dbbc-9a38-4899-ac52-72177fecbe77}, !- Handle
  {d26f08fe-aa40-4410-9e72-c684a26df79a}, !- Name
  {b3e65a29-5b93-43b6-9ef0-e2c23a369e08}, !- Heating Setpoint Temperature Schedule Name
  {2276f816-b86e-4301-bc7e-9f49e223889b}; !- Cooling Setpoint Temperature Schedule Name

OS:Schedule:Compact,
  {a0d941c2-3a89-453e-b252-6cddd21fa030}, !- Handle
  BLDG_LIGHT_SCH,                         !- Name
  {6298df78-0953-4e56-af8b-5240266cc3e6}, !- Schedule Type Limits Name
  Through: 12/31,                         !- Field 1
  For: Weekdays,                          !- Field 2
  Until: 07:00,                           !- Field 3
  0.05,                                   !- Field 4
  Until: 08:00,                           !- Field 5
  0.2,                                    !- Field 6
  Until: 09:00,                           !- Field 7
  0.5,                                    !- Field 8
  Until: 18:00,                           !- Field 9
  0.9,                                    !- Field 10
  Until: 20:00,                           !- Field 11
  0.6,                                    !- Field 12
  Until: 21:00,                           !- Field 13
  0.5,                                    !- Field 14
  Until: 22:00,                           !- Field 15
  0.2,                                    !- Field 16
  Until: 24:00,                           !- Field 17
  0.05,                                   !- Field 18
  For: Saturday,                          !- Field 19
  Until: 07:00,                           !- Field 20
  0.05,                                   !- Field 21
  Until: 08:00,                           !- Field 22
  0.1,                                    !- Field 23
  Until: 09:00,                           !- Field 24
  0.3,                                    !- Field 25
  Until: 10:00,                           !- Field 26
  0.6,                                    !- Field 27
  Until: 18:00,                           !- Field 28
  0.9,                                    !- Field 29
  Until: 19:00,                           !- Field 30
  0.5,                                    !- Field 31
  Until: 21:00,                           !- Field 32
  0.3,                                    !- Field 33
  Until: 22:00,                           !- Field 34
  0.1,                                    !- Field 35
  Until: 24:00,                           !- Field 36
  0.05,                                   !- Field 37
  For: SummerDesignDay,                   !- Field 38
  Until: 24:00,                           !- Field 39
  1.0,                                    !- Field 40
  For: WinterDesignDay,                   !- Field 41
  Until: 24:00,                           !- Field 42
  0.0,                                    !- Field 43
  For: Sunday Holidays AllOtherDays,      !- Field 44
  Until: 08:00,                           !- Field 45
  0.05,                                   !- Field 46
  Until: 10:00,                           !- Field 47
  0.1,                                    !- Field 48
  Until: 12:00,                           !- Field 49
  0.4,                                    !- Field 50
  Until: 17:00,                           !- Field 51
  0.6,                                    !- Field 52
  Until: 18:00,                           !- Field 53
  0.4,                                    !- Field 54
  Until: 19:00,                           !- Field 55
  0.2,                                    !- Field 56
  Until: 24:00,                           !- Field 57
  0.05;                                   !- Field 58

OS:ScheduleTypeLimits,
  {6298df78-0953-4e56-af8b-5240266cc3e6}, !- Handle
  Fraction,                               !- Name
  0,                                      !- Lower Limit Value {BasedOnField A4}
  1,                                      !- Upper Limit Value {BasedOnField A4}
  CONTINUOUS;                             !- Numeric Type

OS:Surface,
  {f92e274e-7b81-4a3b-9673-0baec2220b3c}, !- Handle
  SMstore2_Floor,                         !- Name
  Floor,                                  !- Surface Type
  {8ade4293-4f56-4bb2-bf6c-e04472da8d4e}, !- Construction Name
  {ebcadc33-3ccb-4c4e-9cc3-e9a51e6a9700}, !- Space Name
  Ground,                                 !- Outside Boundary Condition
  ,                                       !- Outside Boundary Condition Object
  NoSun,                                  !- Sun Exposure
  NoWind,                                 !- Wind Exposure
  ,                                       !- View Factor to Ground
  ,                                       !- Number of Vertices
  30.48, 22.86, 0,                        !- X,Y,Z Vertex 1 {m}
  30.48, 0, 0,                            !- X,Y,Z Vertex 2 {m}
  22.86, 0, 0,                            !- X,Y,Z Vertex 3 {m}
  22.86, 22.86, 0;                        !- X,Y,Z Vertex 4 {m}

OS:Construction,
  {8ade4293-4f56-4bb2-bf6c-e04472da8d4e}, !- Handle
  ext-slab,                               !- Name
  ,                                       !- Surface Rendering Name
  {190a1a24-851b-45df-9a75-c3a4ac9a01ea}; !- Layer 1

OS:Material,
  {190a1a24-851b-45df-9a75-c3a4ac9a01ea}, !- Handle
  HW CONCRETE,                            !- Name
  Rough,                                  !- Roughness
  0.1016,                                 !- Thickness {m}
  1.311,                                  !- Conductivity {W/m-K}
  2240,                                   !- Density {kg/m3}
  836.8,                                  !- Specific Heat {J/kg-K}
  0.9,                                    !- Thermal Absorptance
  0.7,                                    !- Solar Absorptance
  0.7;                                    !- Visible Absorptance

OS:Space,
  {ebcadc33-3ccb-4c4e-9cc3-e9a51e6a9700}, !- Handle
  SMstore2,                               !- Name
  {f082a0e3-e65f-42ba-baae-6a340057d22d}, !- Space Type Name
  ,                                       !- Default Construction Set Name
  ,                                       !- Default Schedule Set Name
  0,                                      !- Direction of Relative North {deg}
  0,                                      !- X Origin {m}
  0,                                      !- Y Origin {m}
  0,                                      !- Z Origin {m}
  {e93a65cb-05f1-4b5b-a741-1e770a497a25}, !- Building Story Name
  {c567217e-c6cd-4da0-8931-db96d46d8572}, !- Thermal Zone Name
  Yes,                                    !- Part of Total Floor Area
  {13ad8067-7aa8-43f9-b2d3-7a50b4043ccc}; !- Design Specification Outdoor Air Object Name

OS:ThermostatSetpoint:DualSetpoint,
  {b76e6f99-4aab-482d-ab41-00746a01973c}, !- Handle
  {6310f2e3-3b0b-47fa-a6f3-b56ca3b6d94f}, !- Name
  {b3e65a29-5b93-43b6-9ef0-e2c23a369e08}, !- Heating Setpoint Temperature Schedule Name
  {2276f816-b86e-4301-bc7e-9f49e223889b}; !- Cooling Setpoint Temperature Schedule Name

OS:SubSurface,
  {cc0ee956-783a-4bc1-8937-35d599796f87}, !- Handle
  SMstore4_Wall_1_Door,                   !- Name
  GlassDoor,                              !- Sub Surface Type
  {cb397c82-87fa-4e2e-a7a5-cd71482012ff}, !- Construction Name
  {d0ca06ca-da99-4944-9031-9edd09274ec6}, !- Surface Name
  ,                                       !- Outside Boundary Condition Object
  ,                                       !- View Factor to Ground
  ,                                       !- Shading Control Name
  ,                                       !- Frame and Divider Name
  1,                                      !- Multiplier
  ,                                       !- Number of Vertices
  41, 0, 2.13,                            !- X,Y,Z Vertex 1 {m}
  41, 0, 0,                               !- X,Y,Z Vertex 2 {m}
  42.82, 0, 0,                            !- X,Y,Z Vertex 3 {m}
  42.82, 0, 2.13;                         !- X,Y,Z Vertex 4 {m}

OS:Surface,
  {d0ca06ca-da99-4944-9031-9edd09274ec6}, !- Handle
  SMstore4_Wall_1,                        !- Name
  Wall,                                   !- Surface Type
  {04141ab4-fd88-42ca-8fef-269e72266f0b}, !- Construction Name
  {b38bf937-0f02-412d-bf83-20cf49d63297}, !- Space Name
  Outdoors,                               !- Outside Boundary Condition
  ,                                       !- Outside Boundary Condition Object
  SunExposed,                             !- Sun Exposure
  WindExposed,                            !- Wind Exposure
  ,                                       !- View Factor to Ground
  ,                                       !- Number of Vertices
  38.1, 0, 5.18,                          !- X,Y,Z Vertex 1 {m}
  38.1, 0, 0,                             !- X,Y,Z Vertex 2 {m}
  45.72, 0, 0,                            !- X,Y,Z Vertex 3 {m}
  45.72, 0, 5.18;                         !- X,Y,Z Vertex 4 {m}

OS:Space,
  {b38bf937-0f02-412d-bf83-20cf49d63297}, !- Handle
  SMstore4,                               !- Name
  {f082a0e3-e65f-42ba-baae-6a340057d22d}, !- Space Type Name
  ,                                       !- Default Construction Set Name
  ,                                       !- Default Schedule Set Name
  0,                                      !- Direction of Relative North {deg}
  0,                                      !- X Origin {m}
  0,                                      !- Y Origin {m}
  0,                                      !- Z Origin {m}
  {e93a65cb-05f1-4b5b-a741-1e770a497a25}, !- Building Story Name
  {c567217e-c6cd-4da0-8931-db96d46d8572}, !- Thermal Zone Name
  Yes,                                    !- Part of Total Floor Area
  {ca0b234c-312b-41df-9b59-5ab197597c94}; !- Design Specification Outdoor Air Object Name

OS:ThermostatSetpoint:DualSetpoint,
  {6f5ae9c2-dacc-4f28-9c7a-bbd0cad8ab7f}, !- Handle
  {1b553b12-8ae5-41fe-9bbd-014d920937ae}, !- Name
  {b3e65a29-5b93-43b6-9ef0-e2c23a369e08}, !- Heating Setpoint Temperature Schedule Name
  {2276f816-b86e-4301-bc7e-9f49e223889b}; !- Cooling Setpoint Temperature Schedule Name

OS:SubSurface,
  {0855c1a5-74c6-4c06-8792-e9af06f3544b}, !- Handle
  SMstore2_Wall_3_Door,                   !- Name
  Door,                                   !- Sub Surface Type
  {4ad52edd-835b-4757-b473-a7fe19514519}, !- Construction Name
  {b2fe43b9-3ae4-47d3-b5b8-c8c26348fd24}, !- Surface Name
  ,                                       !- Outside Boundary Condition Object
  ,                                       !- View Factor to Ground
  ,                                       !- Shading Control Name
  ,                                       !- Frame and Divider Name
  1,                                      !- Multiplier
  ,                                       !- Number of Vertices
  27.58, 22.86, 2.13,                     !- X,Y,Z Vertex 1 {m}
  27.58, 22.86, 0,                        !- X,Y,Z Vertex 2 {m}
  25.76, 22.86, 0,                        !- X,Y,Z Vertex 3 {m}
  25.76, 22.86, 2.13;                     !- X,Y,Z Vertex 4 {m}

OS:Construction,
  {4ad52edd-835b-4757-b473-a7fe19514519}, !- Handle
  Swinging Door Non-res,                  !- Name
  ,                                       !- Surface Rendering Name
  {e29ad098-548d-4d9f-8175-df944126be26}; !- Layer 1

OS:Material:NoMass,