
OS:Version,
  {513cb3bf-d0c9-4817-8964-d32278a37bcc}, !- Handle
  2.2.1;                                  !- Version Identifier

OS:Site,
  {60c4cd85-d64b-4e19-b936-8f6a234d9ff1}, !- Handle
  Miami Intl Ap_FL_USA,                   !- Name
  25.82,                                  !- Latitude {deg}
  -80.3,                                  !- Longitude {deg}
  -5,                                     !- Time Zone {hr}
  11,                                     !- Elevation {m}
  City;                                   !- Terrain

OS:SimulationControl,
  {9c1f4b92-ed28-4bd0-9880-5794827dcfa3}, !- Handle
  Yes,                                    !- Do Zone Sizing Calculation
  Yes,                                    !- Do System Sizing Calculation
  Yes,                                    !- Do Plant Sizing Calculation
  No,                                     !- Run Simulation for Sizing Periods
  Yes,                                    !- Run Simulation for Weather File Run Periods
  0.04,                                   !- Loads Convergence Tolerance Value
  0.2,                                    !- Temperature Convergence Tolerance Value {deltaC}
  FullInteriorAndExterior,                !- Solar Distribution
  25,                                     !- Maximum Number of Warmup Days
  6;                                      !- Minimum Number of Warmup Days

OS:Surface,
  {06577328-caef-40b8-afdf-d3f3bc882286}, !- Handle
  247258,                                 !- Name
  Wall,                                   !- Surface Type
  ,                                       !- Construction Name
  {86ed8403-dbfa-4ff7-aa9d-0356bdcf18c8}, !- Space Name
  Surface,                                !- Outside Boundary Condition
  {79dbc3b2-7700-4e0c-9d4e-621bcaf143a2}, !- Outside Boundary Condition Object
  NoSun,                                  !- Sun Exposure
  NoWind,                                 !- Wind Exposure
  ,                                       !- View Factor to Ground
  ,                                       !- Number of Vertices
  -7.3152, 0, 3.048,                      !- X,Y,Z Vertex 1 {m}
  -7.3152, 0, 0,                          !- X,Y,Z Vertex 2 {m}
  -7.3152, -10.0584, 0,                   !- X,Y,Z Vertex 3 {m}
  -7.3152, -10.0584, 3.048;               !- X,Y,Z Vertex 4 {m}

OS:Space,
  {86ed8403-dbfa-4ff7-aa9d-0356bdcf18c8}, !- Handle
  Floor 2 Exam 7,                         !- Name
  {baae0f3c-28aa-4a3d-a214-3dd7120e2d4c}, !- Space Type Name
  ,                                       !- Default Construction Set Name
  ,                                       !- Default Schedule Set Name
  0,                                      !- Direction of Relative North {deg}
  38.1,                                   !- X Origin {m}
  28.3464,                                !- Y Origin {m}
  3.048,                                  !- Z Origin {m}
  {8d24ab9c-279b-4457-9719-9c774ab72027}, !- Building Story Name
  {d27c6fb7-7dac-4ee0-ad62-f368ac3fb0d8}, !- Thermal Zone Name
  Yes;                                    !- Part of Total Floor Area

OS:Space,
  {bcc5f281-0488-4a95-ad95-bd7168cfac49}, !- Handle
  Floor 2 Reception,                      !- Name
  {09453800-acf6-40b6-92f9-3bdbb56645d6}, !- Space Type Name
  ,                                       !- Default Construction Set Name
  ,                                       !- Default Schedule Set Name
  0,                                      !- Direction of Relative North {deg}
  2.1336,                                 !- X Origin {m}
  16.4592,                                !- Y Origin {m}
  3.048,                                  !- Z Origin {m}
  {8d24ab9c-279b-4457-9719-9c774ab72027}, !- Building Story Name
  {1fd2d271-9977-41b5-b08e-d5719f3ba041}, !- Thermal Zone Name
  Yes;                                    !- Part of Total Floor Area

OS:Space,
  {2ae91237-f2ec-4554-9207-69fae185a701}, !- Handle
  Floor 1 Sterile Storage,                !- Name
  {2c4e105a-9f49-41a4-9e2c-5a1ffe5dcf9d}, !- Space Type Name
  ,                                       !- Default Construction Set Name
  ,                                       !- Default Schedule Set Name
  0,                                      !- Direction of Relative North {deg}
  32.004,                                 !- X Origin {m}
  13.1064,                                !- Y Origin {m}
  0,                                      !- Z Origin {m}
  {faa479b0-c744-4377-8d20-7db5183673cd}, !- Building Story Name
  {c60a0afe-6fdb-4b08-9180-8ae811fc72f1}, !- Thermal Zone Name
  Yes;                                    !- Part of Total Floor Area

OS:Surface,
  {9dbe9d57-b656-41e9-8fcf-854149939f4c}, !- Handle
  FF8B08,                                 !- Name
  Wall,                                   !- Surface Type
  ,                                       !- Construction Name
  {86ed8403-dbfa-4ff7-aa9d-0356bdcf18c8}, !- Space Name
  Surface,                                !- Outside Boundary Condition
  {5f300abc-5630-4996-b714-3d44d5e64d3c}, !- Outside Boundary Condition Object
  NoSun,                                  !- Sun Exposure
  NoWind,                                 !- Wind Exposure
  ,                                       !- View Factor to Ground
  ,                                       !- Number of Vertices
  0, -10.0584, 3.048,                     !- X,Y,Z Vertex 1 {m}
  0, -10.0584, 0,                         !- X,Y,Z Vertex 2 {m}
  0, 0, 0,                                !- X,Y,Z Vertex 3 {m}
  0, 0, 3.048;                            !- X,Y,Z Vertex 4 {m}

OS:Surface,
  {1107610b-26fd-4b4d-9561-6c4e51227def}, !- Handle
  17C5CF,                                 !- Name
  Floor,                                  !- Surface Type
  ,                                       !- Construction Name
  {352abff7-7684-4793-af1f-8f9ab4c84c05}, !- Space Name
  Surface,                                !- Outside Boundary Condition
  {35c0d19d-830f-4311-97ec-b78a33fce46a}, !- Outside Boundary Condition Object
  NoSun,                                  !- Sun Exposure
  NoWind,                                 !- Wind Exposure
  ,                                       !- View Factor to Ground
  ,                                       !- Number of Vertices
  7.3152, 3.6576, 0,                      !- X,Y,Z Vertex 1 {m}
  7.3152, 0, 0,                           !- X,Y,Z Vertex 2 {m}
  0, 0, 0,                                !- X,Y,Z Vertex 3 {m}
  0, 3.6576, 0;                           !- X,Y,Z Vertex 4 {m}

OS:Space,
  {352abff7-7684-4793-af1f-8f9ab4c84c05}, !- Handle
  Floor 2 Exam 3,                         !- Name
  {baae0f3c-28aa-4a3d-a214-3dd7120e2d4c}, !- Space Type Name
  ,                                       !- Default Construction Set Name
  ,                                       !- Default Schedule Set Name
  0,                                      !- Direction of Relative North {deg}
  30.7848,                                !- X Origin {m}
  0,                                      !- Y Origin {m}
  3.048,                                  !- Z Origin {m}
  {8d24ab9c-279b-4457-9719-9c774ab72027}, !- Building Story Name
  {c44531de-9f89-4fc9-abdd-6acd6feceaf9}, !- Thermal Zone Name
  Yes;                                    !- Part of Total Floor Area

OS:Surface,
  {70b8e034-84ee-4282-8a89-372426f777d1}, !- Handle
  EC2478,                                 !- Name
  RoofCeiling,                            !- Surface Type
  ,                                       !- Construction Name
  {006af7b5-d11d-4fe8-af64-4fc32747ca2c}, !- Space Name
  Surface,                                !- Outside Boundary Condition
  {eb3727dc-4f17-4f5f-a1f7-c8ba82c2e9d2}, !- Outside Boundary Condition Object
  NoSun,                                  !- Sun Exposure
  NoWind,                                 !- Wind Exposure
  ,                                       !- View Factor to Ground
  ,                                       !- Number of Vertices
  1.524, 0, 3.048,                        !- X,Y,Z Vertex 1 {m}
  1.524, 0.3048, 3.048,                   !- X,Y,Z Vertex 2 {m}
  0, 0.3048, 3.048,                       !- X,Y,Z Vertex 3 {m}
  0, 0, 3.048;                            !- X,Y,Z Vertex 4 {m}

OS:Space,
  {006af7b5-d11d-4fe8-af64-4fc32747ca2c}, !- Handle
  Floor 1 Clean,                          !- Name
  {62a2c9d4-7964-46fb-9106-186d18c01454}, !- Space Type Name
  ,                                       !- Default Construction Set Name
  ,                                       !- Default Schedule Set Name
  0,                                      !- Direction of Relative North {deg}
  29.2608,                                !- X Origin {m}
  8.8392,                                 !- Y Origin {m}
  0,                                      !- Z Origin {m}
  {faa479b0-c744-4377-8d20-7db5183673cd}, !- Building Story Name
  {143944bc-4344-4f38-9d52-848c7ca29854}, !- Thermal Zone Name
  Yes;                                    !- Part of Total Floor Area

OS:Space,
  {20251e6a-fe1c-4986-bf3b-cd01d1ff3822}, !- Handle
  Floor 1 Pre-Op Room 2,                  !- Name
  {343ebceb-f0c1-4c13-8835-9ef0eb938975}, !- Space Type Name
  ,                                       !- Default Construction Set Name
  ,                                       !- Default Schedule Set Name
  0,                                      !- Direction of Relative North {deg}
  24.384,                                 !- X Origin {m}
  8.8392,                                 !- Y Origin {m}
  0,                                      !- Z Origin {m}
  {faa479b0-c744-4377-8d20-7db5183673cd}, !- Building Story Name
  {f9d18d2b-14d8-409a-aea0-7da106723bb7}, !- Thermal Zone Name
  Yes;                                    !- Part of Total Floor Area

OS:Surface,
  {f06dccf5-455a-453f-898e-5eedfee5413d}, !- Handle
  F6DDE6,                                 !- Name
  Floor,                                  !- Surface Type
  ,                                       !- Construction Name
  {df26f40a-11a7-419c-97c1-308b2f622f88}, !- Space Name
  Surface,                                !- Outside Boundary Condition
  {5ad68a99-1137-4119-8c5b-19834ff680ee}, !- Outside Boundary Condition Object
  NoSun,                                  !- Sun Exposure
  NoWind,                                 !- Wind Exposure
  ,                                       !- View Factor to Ground
  ,                                       !- Number of Vertices
  0, 0, 0,                                !- X,Y,Z Vertex 1 {m}
  0, -2.7432, 0,                          !- X,Y,Z Vertex 2 {m}
  -4.2672, -2.7432, 0,                    !- X,Y,Z Vertex 3 {m}
  -4.2672, 0, 0;                          !- X,Y,Z Vertex 4 {m}

OS:Space,
  {df26f40a-11a7-419c-97c1-308b2f622f88}, !- Handle
  Floor 3 Work,                           !- Name
  {82a74379-ad5b-472c-96cb-8ae1a43b83c4}, !- Space Type Name
  ,                                       !- Default Construction Set Name
  ,                                       !- Default Schedule Set Name
  0,                                      !- Direction of Relative North {deg}
  50.5968,                                !- X Origin {m}
  18.5928,                                !- Y Origin {m}
  6.096,                                  !- Z Origin {m}
  {d66b19da-fd91-4b80-bd09-8bfd21764430}, !- Building Story Name
  {de6e221e-c677-409b-85b5-a1f18a7c9f1f}, !- Thermal Zone Name
  Yes;                                    !- Part of Total Floor Area

OS:Surface,
  {d263be24-07ea-4a47-8058-a0fa5b81f5b1}, !- Handle
  46292D,                                 !- Name
  Wall,                                   !- Surface Type
  ,                                       !- Construction Name
  {ee887389-8b4d-4adf-8cbb-17efba387725}, !- Space Name
  Surface,                                !- Outside Boundary Condition
  {49a932d7-a1f8-4848-94e8-0af01fdac8bd}, !- Outside Boundary Condition Object
  NoSun,                                  !- Sun Exposure
  NoWind,                                 !- Wind Exposure
  ,                                       !- View Factor to Ground
  ,                                       !- Number of Vertices
  0, 0, 3.048,                            !- X,Y,Z Vertex 1 {m}
  0, 0, 0,                                !- X,Y,Z Vertex 2 {m}
  0, 1.8288, 0,                           !- X,Y,Z Vertex 3 {m}
  0, 1.8288, 3.048;                       !- X,Y,Z Vertex 4 {m}

OS:Space,
  {ee887389-8b4d-4adf-8cbb-17efba387725}, !- Handle
  Floor 3 Dressing Room,                  !- Name
  {33222d67-f627-4af2-a4eb-de0d1e8e5bcb}, !- Space Type Name
  ,                                       !- Default Construction Set Name
  ,                                       !- Default Schedule Set Name
  0,                                      !- Direction of Relative North {deg}
  39.0144,                                !- X Origin {m}
  10.9728,                                !- Y Origin {m}
  6.096,                                  !- Z Origin {m}
  {d66b19da-fd91-4b80-bd09-8bfd21764430}, !- Building Story Name
  {f269571b-d357-43c2-abc1-ac3b72f5f89d}, !- Thermal Zone Name
  Yes;                                    !- Part of Total Floor Area

OS:Surface,
  {88c1f545-79c4-4823-b4ab-f2891a696643}, !- Handle
  Floor 3 Physical Therapy Toilet Roof,   !- Name
  RoofCeiling,                            !- Surface Type
  ,                                       !- Construction Name
  {a4fb9738-10d0-4f34-ae49-734ffe7d4a6e}, !- Space Name
  Outdoors,                               !- Outside Boundary Condition
  ,                                       !- Outside Boundary Condition Object
  SunExposed,                             !- Sun Exposure
  WindExposed,                            !- Wind Exposure
  ,                                       !- View Factor to Ground
  ,                                       !- Number of Vertices
  0, 1.8288, 3.048,                       !- X,Y,Z Vertex 1 {m}
  0, 5.4864, 3.048,                       !- X,Y,Z Vertex 2 {m}
  -2.1336, 5.4864, 3.048,                 !- X,Y,Z Vertex 3 {m}
  -2.1336, 1.8288, 3.048;                 !- X,Y,Z Vertex 4 {m}

OS:Space,
  {a4fb9738-10d0-4f34-ae49-734ffe7d4a6e}, !- Handle
  Floor 3 Physical Therapy Toilet,        !- Name
  {e161c958-6bbf-46de-baf8-bca806787c3a}, !- Space Type Name
  ,                                       !- Default Construction Set Name
  ,                                       !- Default Schedule Set Name
  0,                                      !- Direction of Relative North {deg}
  39.0144,                                !- X Origin {m}
  10.9728,                                !- Y Origin {m}
  6.096,                                  !- Z Origin {m}
  {d66b19da-fd91-4b80-bd09-8bfd21764430}, !- Building Story Name
  {dd9ada18-d375-42b3-8010-3c1599caf117}, !- Thermal Zone Name
  Yes;                                    !- Part of Total Floor Area

OS:Space,
  {701af467-61d5-43f4-b841-aa2d005938fd}, !- Handle
  Floor 3 Office Toilet,                  !- Name
  {e161c958-6bbf-46de-baf8-bca806787c3a}, !- Space Type Name
  ,                                       !- Default Construction Set Name
  ,                                       !- Default Schedule Set Name
  0,                                      !- Direction of Relative North {deg}
  0,                                      !- X Origin {m}
  24.384,                                 !- Y Origin {m}
  6.096,                                  !- Z Origin {m}
  {d66b19da-fd91-4b80-bd09-8bfd21764430}, !- Building Story Name
  {464e638d-3da2-4b2d-bc1b-fe9adf54788e}, !- Thermal Zone Name
  Yes;                                    !- Part of Total Floor Area

OS:Space,
  {985c61fb-783a-4b92-a34d-235dbff8ebc0}, !- Handle
  Floor 1 Utility Room,                   !- Name
  {2c4e105a-9f49-41a4-9e2c-5a1ffe5dcf9d}, !- Space Type Name
  ,                                       !- Default Construction Set Name
  ,                                       !- Default Schedule Set Name
  0,                                      !- Direction of Relative North {deg}
  50.5968,                                !- X Origin {m}
  20.7264,                                !- Y Origin {m}
  0,                                      !- Z Origin {m}
  {faa479b0-c744-4377-8d20-7db5183673cd}, !- Building Story Name
  {18f25f24-7a2e-46c5-82a9-f30781fc420f}, !- Thermal Zone Name
  Yes;                                    !- Part of Total Floor Area

OS:Space,
  {59deb157-6cde-47ae-9c2a-6fc9e3049325}, !- Handle
  Floor 1 Nurse Janitor,                  !- Name
  {2c4e105a-9f49-41a4-9e2c-5a1ffe5dcf9d}, !- Space Type Name
  ,                                       !- Default Construction Set Name
  ,                                       !- Default Schedule Set Name
  0,                                      !- Direction of Relative North {deg}
  29.2608,                                !- X Origin {m}
  16.764,                                 !- Y Origin {m}
  0,                                      !- Z Origin {m}
  {faa479b0-c744-4377-8d20-7db5183673cd}, !- Building Story Name
  {eb0858ff-ac49-4ea6-89f6-f3d8341dc327}, !- Thermal Zone Name
  Yes;                                    !- Part of Total Floor Area

OS:Space,
  {0bc6fb6b-c93c-44ab-ad46-d5885e8a45a5}, !- Handle
  Floor 2 Scheduling 1,                   !- Name
  {82a74379-ad5b-472c-96cb-8ae1a43b83c4}, !- Space Type Name
  ,                                       !- Default Construction Set Name
  ,                                       !- Default Schedule Set Name
  0,                                      !- Direction of Relative North {deg}
  44.5008,                                !- X Origin {m}
  16.4592,                                !- Y Origin {m}
  3.048,                                  !- Z Origin {m}
  {8d24ab9c-279b-4457-9719-9c774ab72027}, !- Building Story Name
  {835d3229-ddb2-4915-8f17-dad0f0fcf5d2}, !- Thermal Zone Name
  Yes;                                    !- Part of Total Floor Area

OS:Surface,
  {29f220b4-2b6f-435b-a655-825ed9073387}, !- Handle
  B29215,                                 !- Name
  Floor,                                  !- Surface Type
  ,                                       !- Construction Name
  {7cd65d81-0fd7-4680-9f0c-6662fac76e15}, !- Space Name
  Surface,                                !- Outside Boundary Condition
  {b520791e-b791-41d7-ac48-a9c2d33b4c41}, !- Outside Boundary Condition Object
  NoSun,                                  !- Sun Exposure
  NoWind,                                 !- Wind Exposure
  ,                                       !- View Factor to Ground
  ,                                       !- Number of Vertices
  7.0104, -4.572, 0,                      !- X,Y,Z Vertex 1 {m}
  7.0104, -7.0104, 0,                     !- X,Y,Z Vertex 2 {m}
  2.4384, -7.0104, 0,                     !- X,Y,Z Vertex 3 {m}
  2.4384, -4.572, 0;                      !- X,Y,Z Vertex 4 {m}

OS:Space,
  {7cd65d81-0fd7-4680-9f0c-6662fac76e15}, !- Handle
  Floor 3 Lounge,                         !- Name
  {cdffd2e9-7393-48a4-b037-ff47b02c59ea}, !- Space Type Name
  ,                                       !- Default Construction Set Name
  ,                                       !- Default Schedule Set Name
  0,                                      !- Direction of Relative North {deg}
  37.4904,                                !- X Origin {m}
  28.3464,                                !- Y Origin {m}
  6.096,                                  !- Z Origin {m}
  {d66b19da-fd91-4b80-bd09-8bfd21764430}, !- Building Story Name
  {74ced367-8abf-449c-8c8f-544effcf1452}, !- Thermal Zone Name
  Yes;                                    !- Part of Total Floor Area

OS:Surface,
  {3c931c33-a218-4b61-802e-3b378ba4a049}, !- Handle
  E0CB0D,                                 !- Name
  Wall,                                   !- Surface Type
  ,                                       !- Construction Name
  {8d5f18f1-6b75-4d1b-a576-8f7ffb2b987c}, !- Space Name
  Surface,                                !- Outside Boundary Condition
  {c7316426-6f92-452f-ad94-f4059906987e}, !- Outside Boundary Condition Object
  NoSun,                                  !- Sun Exposure
  NoWind,                                 !- Wind Exposure
  ,                                       !- View Factor to Ground
  ,                                       !- Number of Vertices
  -3.6576, -3.9624, 3.048,                !- X,Y,Z Vertex 1 {m}
  -3.6576, -3.9624, 0,                    !- X,Y,Z Vertex 2 {m}
  -3.6576, -10.0584, 0,                   !- X,Y,Z Vertex 3 {m}
  -3.6576, -10.0584, 3.048;               !- X,Y,Z Vertex 4 {m}

OS:Space,
  {8d5f18f1-6b75-4d1b-a576-8f7ffb2b987c}, !- Handle
  Floor 3 Elevator Hall,                  !- Name
  {6987c865-e186-48da-9973-f368c5b573e5}, !- Space Type Name
  ,                                       !- Default Construction Set Name
  ,                                       !- Default Schedule Set Name
  0,                                      !- Direction of Relative North {deg}
  5.7912,                                 !- X Origin {m}
  28.3464,                                !- Y Origin {m}
  6.096,                                  !- Z Origin {m}
  {d66b19da-fd91-4b80-bd09-8bfd21764430}, !- Building Story Name
  {45b936b9-fd29-4dd7-a818-e2b1716bac8e}, !- Thermal Zone Name
  Yes;                                    !- Part of Total Floor Area

OS:Surface,
  {27653a86-5e1d-43a3-afa0-679aad100119}, !- Handle
  772953,                                 !- Name
  Floor,                                  !- Surface Type
  ,                                       !- Construction Name
  {7e5bf695-92c1-44ee-84e9-586360bed575}, !- Space Name
  Surface,                                !- Outside Boundary Condition
  {bb20f2e8-8632-475b-8210-187fb2df13e9}, !- Outside Boundary Condition Object
  NoSun,                                  !- Sun Exposure
  NoWind,                                 !- Wind Exposure
  ,                                       !- View Factor to Ground
  ,                                       !- Number of Vertices
  -0.9144, 0, 0,                          !- X,Y,Z Vertex 1 {m}
  -0.9144, -9.144, 0,                     !- X,Y,Z Vertex 2 {m}
  -1.8288, -9.144, 0,                     !- X,Y,Z Vertex 3 {m}
  -1.8288, 0, 0;                          !- X,Y,Z Vertex 4 {m}

OS:Space,
  {7e5bf695-92c1-44ee-84e9-586360bed575}, !- Handle
  Floor 2 Exam Hall 5,                    !- Name
  {78fed292-892b-4fcd-8f11-72102d1c8d99}, !- Space Type Name
  ,                                       !- Default Construction Set Name
  ,                                       !- Default Schedule Set Name
  0,                                      !- Direction of Relative North {deg}
  30.7848,                                !- X Origin {m}
  28.3464,                                !- Y Origin {m}
  3.048,                                  !- Z Origin {m}
  {8d24ab9c-279b-4457-9719-9c774ab72027}, !- Building Story Name
  {6d8b43d7-63ff-4323-b88e-2eb4a9ba6b0f}, !- Thermal Zone Name
  Yes;                                    !- Part of Total Floor Area

OS:Space,
  {961bf9d6-3ed7-4e94-ad5c-99b459658f3c}, !- Handle
  Floor 2 Reception Toilet,               !- Name
  {e161c958-6bbf-46de-baf8-bca806787c3a}, !- Space Type Name
  ,                                       !- Default Construction Set Name
  ,                                       !- Default Schedule Set Name
  0,                                      !- Direction of Relative North {deg}
  17.9832,                                !- X Origin {m}
  10.9728,                                !- Y Origin {m}
  3.048,                                  !- Z Origin {m}
  {8d24ab9c-279b-4457-9719-9c774ab72027}, !- Building Story Name
  {cbedaec6-dbc6-41a1-814e-d41d62152a2a}, !- Thermal Zone Name
  Yes;                                    !- Part of Total Floor Area

OS:Space,
  {75d0c5d8-c7ef-4e6f-a4df-908ffbbed64e}, !- Handle
  Floor 2 Nurse Station 2,                !- Name
  {f1297692-538a-4d40-86a0-4720ef0e90b0}, !- Space Type Name
  ,                                       !- Default Construction Set Name
  ,                                       !- Default Schedule Set Name
  0,                                      !- Direction of Relative North {deg}
  23.4696,                                !- X Origin {m}
  21.336,                                 !- Y Origin {m}
  3.048,                                  !- Z Origin {m}
  {8d24ab9c-279b-4457-9719-9c774ab72027}, !- Building Story Name
  {a35c88a7-33f1-48f3-bf70-4bc47eef3095}, !- Thermal Zone Name
  Yes;                                    !- Part of Total Floor Area

OS:Surface,
  {e91ad0b4-51f3-4522-8edf-227ac9b1e645}, !- Handle
  C271D9,                                 !- Name
  Floor,                                  !- Surface Type
  ,                                       !- Construction Name
  {55fd929e-e62d-4368-ab9a-c979fb9f9b97}, !- Space Name
  Surface,                                !- Outside Boundary Condition
  {087a2cb1-1d57-45f1-82b4-826109b0f19f}, !- Outside Boundary Condition Object
  NoSun,                                  !- Sun Exposure
  NoWind,                                 !- Wind Exposure
  ,                                       !- View Factor to Ground
  ,                                       !- Number of Vertices
  4.8768, -1.8288, 0,                     !- X,Y,Z Vertex 1 {m}
  4.8768, -4.8768, 0,                     !- X,Y,Z Vertex 2 {m}
  3.048, -4.8768, 0,                      !- X,Y,Z Vertex 3 {m}
  3.048, -1.8288, 0;                      !- X,Y,Z Vertex 4 {m}

OS:Space,
  {55fd929e-e62d-4368-ab9a-c979fb9f9b97}, !- Handle
  Floor 3 Physical Therapy 2,             !- Name
  {f894c488-ec25-49a8-a654-f5593e60c37c}, !- Space Type Name
  ,                                       !- Default Construction Set Name
  ,                                       !- Default Schedule Set Name
  0,                                      !- Direction of Relative North {deg}
  35.052,                                 !- X Origin {m}
  10.9728,                                !- Y Origin {m}
  6.096,                                  !- Z Origin {m}
  {d66b19da-fd91-4b80-bd09-8bfd21764430}, !- Building Story Name
  {a04b103b-dd73-4d8a-b987-5718bb93d233}, !- Thermal Zone Name
  Yes;                                    !- Part of Total Floor Area

OS:Surface,
  {bdd851b2-52d3-486c-8c29-680851988153}, !- Handle
  Floor 1 Vestibule Slab,                 !- Name
  Floor,                                  !- Surface Type
  ,                                       !- Construction Name
  {c9d2e614-e457-4c00-b493-1476604fd790}, !- Space Name
  Ground,                                 !- Outside Boundary Condition
  ,                                       !- Outside Boundary Condition Object
  NoSun,                                  !- Sun Exposure
  NoWind,                                 !- Wind Exposure
  ,                                       !- View Factor to Ground
  ,                                       !- Number of Vertices
  2.7432, 0, 0,                           !- X,Y,Z Vertex 1 {m}
  2.7432, -2.4384, 0,                     !- X,Y,Z Vertex 2 {m}
  0, -2.4384, 0,                          !- X,Y,Z Vertex 3 {m}
  0, 0, 0;                                !- X,Y,Z Vertex 4 {m}

OS:Space,
  {c9d2e614-e457-4c00-b493-1476604fd790}, !- Handle
  Floor 1 Vestibule,                      !- Name
  {6987c865-e186-48da-9973-f368c5b573e5}, !- Space Type Name
  ,                                       !- Default Construction Set Name
  ,                                       !- Default Schedule Set Name
  0,                                      !- Direction of Relative North {deg}
  17.9832,                                !- X Origin {m}
  7.9248,                                 !- Y Origin {m}
  0,                                      !- Z Origin {m}
  {faa479b0-c744-4377-8d20-7db5183673cd}, !- Building Story Name
  {add68eb8-ea6f-4121-a2b1-804168a5e4a0}, !- Thermal Zone Name
  Yes;                                    !- Part of Total Floor Area

OS:Surface,
  {af7318dd-afeb-4277-b7ad-b408ab0a2807}, !- Handle
  Floor 1 IT Hall Slab,                   !- Name
  Floor,                                  !- Surface Type
  ,                                       !- Construction Name
  {65ed283c-1371-4be9-914f-f70e1dcf5721}, !- Space Name
  Ground,                                 !- Outside Boundary Condition
  ,                                       !- Outside Boundary Condition Object
  NoSun,                                  !- Sun Exposure
  NoWind,                                 !- Wind Exposure
  ,                                       !- View Factor to Ground
  ,                                       !- Number of Vertices
  8.5344, 0, 0,                           !- X,Y,Z Vertex 1 {m}
  8.5344, -1.524, 0,                      !- X,Y,Z Vertex 2 {m}
  0, -1.524, 0,                           !- X,Y,Z Vertex 3 {m}
  0, 0, 0;                                !- X,Y,Z Vertex 4 {m}

OS:Space,
  {65ed283c-1371-4be9-914f-f70e1dcf5721}, !- Handle
  Floor 1 IT Hall,                        !- Name
  {78fed292-892b-4fcd-8f11-72102d1c8d99}, !- Space Type Name
  ,                                       !- Default Construction Set Name
  ,                                       !- Default Schedule Set Name
  0,                                      !- Direction of Relative North {deg}
  33.528,                                 !- X Origin {m}
  25.908,                                 !- Y Origin {m}
  0,                                      !- Z Origin {m}
  {faa479b0-c744-4377-8d20-7db5183673cd}, !- Building Story Name
  {345ffdb5-0fce-4c46-8dd9-bf208b08b94a}, !- Thermal Zone Name
  Yes;                                    !- Part of Total Floor Area

OS:Surface,
  {d9949d31-b548-48eb-a4e7-5b5cffdcad93}, !- Handle
  F6E6D8,                                 !- Name