
OS:Version,
  {bb19aad2-7b60-47c8-b0a3-560ecec32f41}, !- Handle
  2.2.1;                                  !- Version Identifier

OS:Site,
  {fd21924b-0101-4c91-932b-7cf535b6d003}, !- Handle
  Miami Intl Ap_FL_USA,                   !- Name
  25.82,                                  !- Latitude {deg}
  -80.3,                                  !- Longitude {deg}
  -5,                                     !- Time Zone {hr}
  11,                                     !- Elevation {m}
  City;                                   !- Terrain

OS:SimulationControl,
  {92c4a566-cb81-4da9-be5b-c2804fb507ef}, !- Handle
  Yes,                                    !- Do Zone Sizing Calculation
  Yes,                                    !- Do System Sizing Calculation
  Yes,                                    !- Do Plant Sizing Calculation
  No,                                     !- Run Simulation for Sizing Periods
  Yes,                                    !- Run Simulation for Weather File Run Periods
  0.04,                                   !- Loads Convergence Tolerance Value
  0.2,                                    !- Temperature Convergence Tolerance Value {deltaC}
  FullInteriorAndExterior,                !- Solar Distribution
  25,                                     !- Maximum Number of Warmup Days
  6;                                      !- Minimum Number of Warmup Days

OS:Space,
  {f0ebcc55-d119-496e-bbf0-e492a0d831a0}, !- Handle
  Kitchen,                                !- Name
  {5d32245e-56dc-4a01-9c1e-28db0443f6c8}, !- Space Type Name
  ,                                       !- Default Construction Set Name
  ,                                       !- Default Schedule Set Name
  0,                                      !- Direction of Relative North {deg}
  0,                                      !- X Origin {m}
  0,                                      !- Y Origin {m}
  0,                                      !- Z Origin {m}
  {43225e6e-09f5-41b9-a4cc-46277e060cd0}, !- Building Story Name
  {55f34149-90c3-4cd1-a8ef-bd42acd24c07}, !- Thermal Zone Name
  Yes;                                    !- Part of Total Floor Area

OS:Surface,
  {1a35ad01-5862-4862-a40e-33f8cae722d0}, !- Handle
  Dining_Roof,                            !- Name
  RoofCeiling,                            !- Surface Type
  ,                                       !- Construction Name
  {c9d6931b-992a-4941-8366-2a2f321098b6}, !- Space Name
  Outdoors,                               !- Outside Boundary Condition
  ,                                       !- Outside Boundary Condition Object
  SunExposed,                             !- Sun Exposure
  WindExposed,                            !- Wind Exposure
  0,                                      !- View Factor to Ground
  ,                                       !- Number of Vertices
  15.2428, 0, 3.0488,                     !- X,Y,Z Vertex 1 {m}
  15.2428, 7.6214, 3.0488,                !- X,Y,Z Vertex 2 {m}
  0, 7.6214, 3.0488,                      !- X,Y,Z Vertex 3 {m}
  0, 0, 3.0488;                           !- X,Y,Z Vertex 4 {m}

OS:Space,
  {c9d6931b-992a-4941-8366-2a2f321098b6}, !- Handle
  Dining,                                 !- Name
  {611421cb-f652-4935-a859-857243d4fa74}, !- Space Type Name
  ,                                       !- Default Construction Set Name
  ,                                       !- Default Schedule Set Name
  0,                                      !- Direction of Relative North {deg}
  0,                                      !- X Origin {m}
  0,                                      !- Y Origin {m}
  0,                                      !- Z Origin {m}
  {43225e6e-09f5-41b9-a4cc-46277e060cd0}, !- Building Story Name
  {9c4a5377-11da-46ce-8f70-9c9606f327dc}, !- Thermal Zone Name
  Yes;                                    !- Part of Total Floor Area

OS:Output:Meter,
  {1e112b64-835b-4e5b-b8d9-de222143cf88}, !- Handle
  InteriorEquipment:Electricity,          !- Name
  hourly,                                 !- Reporting Frequency
  False,                                  !- Meter File Only
  False;                                  !- Cumulative

OS:Surface,
  {ef72968f-898a-49b0-ad23-c63b2d573992}, !- Handle
  Dining_Wall_South,                      !- Name
  Wall,                                   !- Surface Type
  ,                                       !- Construction Name
  {c9d6931b-992a-4941-8366-2a2f321098b6}, !- Space Name
  Outdoors,                               !- Outside Boundary Condition
  ,                                       !- Outside Boundary Condition Object
  SunExposed,                             !- Sun Exposure
  WindExposed,                            !- Wind Exposure
  ,                                       !- View Factor to Ground
  ,                                       !- Number of Vertices
  0, 0, 3.0488,                           !- X,Y,Z Vertex 1 {m}
  0, 0, 0,                                !- X,Y,Z Vertex 2 {m}
  15.2428, 0, 0,                          !- X,Y,Z Vertex 3 {m}
  15.2428, 0, 3.0488;                     !- X,Y,Z Vertex 4 {m}

OS:Output:Meter,
  {d83f4d69-7e35-4572-9454-9ce2c6b78a4c}, !- Handle
  ExteriorEquipment:Electricity,          !- Name
  hourly,                                 !- Reporting Frequency
  False,                                  !- Meter File Only
  False;                                  !- Cumulative

OS:Output:Meter,
  {84e7a328-9378-480d-ac4e-85d483e1bd8e}, !- Handle
  WaterSystems:Gas,                       !- Name
  hourly,                                 !- Reporting Frequency
  False,                                  !- Meter File Only
  False;                                  !- Cumulative

OS:Surface,
  {7110afe7-2693-4fdf-9496-598b1e5c6b10}, !- Handle
  Dining_Wall_East,                       !- Name
  Wall,                                   !- Surface Type
  ,                                       !- Construction Name
  {c9d6931b-992a-4941-8366-2a2f321098b6}, !- Space Name
  Outdoors,                               !- Outside Boundary Condition
  ,                                       !- Outside Boundary Condition Object
  SunExposed,                             !- Sun Exposure
  WindExposed,                            !- Wind Exposure
  ,                                       !- View Factor to Ground
  ,                                       !- Number of Vertices
  15.2428, 0, 3.0488,                     !- X,Y,Z Vertex 1 {m}
  15.2428, 0, 0,                          !- X,Y,Z Vertex 2 {m}
  15.2428, 7.6214, 0,                     !- X,Y,Z Vertex 3 {m}
  15.2428, 7.6214, 3.0488;                !- X,Y,Z Vertex 4 {m}

OS:Surface,
  {12325b35-e147-4189-a88a-e00ebbb6e0f6}, !- Handle
  Kitchen_Wall_East,                      !- Name
  Wall,                                   !- Surface Type
  ,                                       !- Construction Name
  {f0ebcc55-d119-496e-bbf0-e492a0d831a0}, !- Space Name
  Outdoors,                               !- Outside Boundary Condition
  ,                                       !- Outside Boundary Condition Object
  SunExposed,                             !- Sun Exposure
  WindExposed,                            !- Wind Exposure
  ,                                       !- View Factor to Ground
  ,                                       !- Number of Vertices
  15.2428, 7.6214, 3.0488,                !- X,Y,Z Vertex 1 {m}
  15.2428, 7.6214, 0,                     !- X,Y,Z Vertex 2 {m}
  15.2428, 15.2428, 0,                    !- X,Y,Z Vertex 3 {m}
  15.2428, 15.2428, 3.0488;               !- X,Y,Z Vertex 4 {m}

OS:Output:Meter,
  {3b3ef85d-f974-45f1-ba06-d597fd566fb4}, !- Handle
  Pumps:Electricity,                      !- Name
  hourly,                                 !- Reporting Frequency
  False,                                  !- Meter File Only
  False;                                  !- Cumulative

OS:Surface,
  {95188dd8-4b4f-4593-9d92-658f68b00745}, !- Handle
  Dining_Wall_West,                       !- Name
  Wall,                                   !- Surface Type
  ,                                       !- Construction Name
  {c9d6931b-992a-4941-8366-2a2f321098b6}, !- Space Name
  Outdoors,                               !- Outside Boundary Condition
  ,                                       !- Outside Boundary Condition Object
  SunExposed,                             !- Sun Exposure
  WindExposed,                            !- Wind Exposure
  ,                                       !- View Factor to Ground
  ,                                       !- Number of Vertices
  0, 7.6214, 3.0488,                      !- X,Y,Z Vertex 1 {m}
  0, 7.6214, 0,                           !- X,Y,Z Vertex 2 {m}
  0, 0, 0,                                !- X,Y,Z Vertex 3 {m}
  0, 0, 3.0488;                           !- X,Y,Z Vertex 4 {m}

OS:Output:Meter,
  {4461ef46-82c6-457f-b74f-114f9f120676}, !- Handle
  ExteriorLights:Electricity,             !- Name
  hourly,                                 !- Reporting Frequency
  False,                                  !- Meter File Only
  False;                                  !- Cumulative

OS:Output:Meter,
  {8524796d-d679-48e1-a049-502cfcb9f352}, !- Handle
  Electricity:Facility,                   !- Name
  hourly,                                 !- Reporting Frequency
  False,                                  !- Meter File Only
  False;                                  !- Cumulative

OS:Output:Meter,
  {5dc95625-491f-487c-ba4f-6c6a0b0e33ec}, !- Handle
  InteriorEquipment:Gas,                  !- Name
  hourly,                                 !- Reporting Frequency
  False,                                  !- Meter File Only
  False;                                  !- Cumulative

OS:Output:Meter,
  {8865bdc2-2b7c-4925-aa75-2a420a4526d2}, !- Handle
  Cooling:Electricity,                    !- Name
  hourly,                                 !- Reporting Frequency
  False,                                  !- Meter File Only
  False;                                  !- Cumulative

OS:Output:Meter,
  {5e483371-6794-416a-927d-70f76035de1d}, !- Handle
  Heating:Electricity,                    !- Name
  hourly,                                 !- Reporting Frequency
  False,                                  !- Meter File Only
  False;                                  !- Cumulative

OS:ConvergenceLimits,
  {d499578c-cf6c-4ba5-9374-bb2c119c2dc8}, !- Handle
  2,                                      !- Minimum System Timestep {minutes}
  25;                                     !- Maximum HVAC Iterations

OS:Output:Meter,
  {5af15e3e-2fe2-4cf3-ae08-b5d2698109aa}, !- Handle
  Heating:Gas,                            !- Name
  hourly,                                 !- Reporting Frequency
  False,                                  !- Meter File Only
  False;                                  !- Cumulative

OS:HeatBalanceAlgorithm,
  {a161201c-bd61-4209-8f42-b04a15891fcb}, !- Handle
  ConductionTransferFunction,             !- Algorithm
  200;                                    !- Surface Temperature Upper Limit {C}

OS:Surface,
  {4cb77b19-5dd3-4a1c-8549-bc20e9862a67}, !- Handle
  Kitchen_Wall_North,                     !- Name
  Wall,                                   !- Surface Type
  ,                                       !- Construction Name
  {f0ebcc55-d119-496e-bbf0-e492a0d831a0}, !- Space Name
  Outdoors,                               !- Outside Boundary Condition
  ,                                       !- Outside Boundary Condition Object
  SunExposed,                             !- Sun Exposure
  WindExposed,                            !- Wind Exposure
  ,                                       !- View Factor to Ground
  ,                                       !- Number of Vertices
  15.2428, 15.2428, 3.0488,               !- X,Y,Z Vertex 1 {m}
  15.2428, 15.2428, 0,                    !- X,Y,Z Vertex 2 {m}
  0, 15.2428, 0,                          !- X,Y,Z Vertex 3 {m}
  0, 15.2428, 3.0488;                     !- X,Y,Z Vertex 4 {m}

OS:Output:Meter,
  {6e68094b-03dc-47d1-a118-19fc56ad0ae9}, !- Handle
  Fans:Electricity,                       !- Name
  hourly,                                 !- Reporting Frequency
  False,                                  !- Meter File Only
  False;                                  !- Cumulative

OS:Output:Meter,
  {9b299ac4-6307-447f-ba03-403d9c0e09ad}, !- Handle
  Humidifier:Electricity,                 !- Name
  hourly,                                 !- Reporting Frequency
  False,                                  !- Meter File Only
  False;                                  !- Cumulative

OS:Output:Meter,
  {479a2c8b-b1ac-4d47-b39c-04d42e5d5b85}, !- Handle
  Gas:Facility,                           !- Name
  hourly,                                 !- Reporting Frequency
  False,                                  !- Meter File Only
  False;                                  !- Cumulative

OS:Output:Meter,
  {8a118788-c1a5-429f-9bac-d19eab48fbc7}, !- Handle
  InteriorLights:Electricity,             !- Name
  hourly,                                 !- Reporting Frequency
  False,                                  !- Meter File Only
  False;                                  !- Cumulative

OS:Output:Meter,
  {fe8a3258-d0a9-4519-b710-c9629e90c0dc}, !- Handle
  WaterSystems:Electricity,               !- Name
  hourly,                                 !- Reporting Frequency
  False,                                  !- Meter File Only
  False;                                  !- Cumulative

OS:Surface,
  {4ce88fa1-0e5f-49d3-850c-93a844e9995e}, !- Handle
  Kitchen_Roof,                           !- Name
  RoofCeiling,                            !- Surface Type
  ,                                       !- Construction Name
  {f0ebcc55-d119-496e-bbf0-e492a0d831a0}, !- Space Name
  Outdoors,                               !- Outside Boundary Condition
  ,                                       !- Outside Boundary Condition Object
  SunExposed,                             !- Sun Exposure
  WindExposed,                            !- Wind Exposure
  0,                                      !- View Factor to Ground
  ,                                       !- Number of Vertices
  15.2428, 7.6214, 3.0488,                !- X,Y,Z Vertex 1 {m}
  15.2428, 15.2428, 3.0488,               !- X,Y,Z Vertex 2 {m}
  0, 15.2428, 3.0488,                     !- X,Y,Z Vertex 3 {m}
  0, 7.6214, 3.0488;                      !- X,Y,Z Vertex 4 {m}

OS:SubSurface,
  {9c995f5b-b7eb-4995-915d-9791e50c93dc}, !- Handle
  Dining_Wall_East_Window,                !- Name
  FixedWindow,                            !- Sub Surface Type
  ,                                       !- Construction Name
  {7110afe7-2693-4fdf-9496-598b1e5c6b10}, !- Surface Name
  ,                                       !- Outside Boundary Condition Object
  ,                                       !- View Factor to Ground
  ,                                       !- Shading Control Name
  ,                                       !- Frame and Divider Name
  1,                                      !- Multiplier
  ,                                       !- Number of Vertices
  15.2428, 0.254, 1.9817,                 !- X,Y,Z Vertex 1 {m}
  15.2428, 0.254, 1.0671,                 !- X,Y,Z Vertex 2 {m}
  15.2428, 7.3673, 1.0671,                !- X,Y,Z Vertex 3 {m}
  15.2428, 7.3673, 1.9817;                !- X,Y,Z Vertex 4 {m}

OS:Output:Meter,
  {518ac81e-a4a9-4abe-b754-610b8a36f2da}, !- Handle
  Refrigeration:Electricity,              !- Name
  hourly,                                 !- Reporting Frequency
  False,                                  !- Meter File Only
  False;                                  !- Cumulative

OS:SubSurface,
  {0010f423-95ca-4832-abe5-81665ed24892}, !- Handle
  Dining_Wall_South_Window,               !- Name
  FixedWindow,                            !- Sub Surface Type
  ,                                       !- Construction Name
  {ef72968f-898a-49b0-ad23-c63b2d573992}, !- Surface Name
  ,                                       !- Outside Boundary Condition Object
  ,                                       !- View Factor to Ground
  ,                                       !- Shading Control Name
  ,                                       !- Frame and Divider Name
  1,                                      !- Multiplier
  ,                                       !- Number of Vertices
  0.508, 0, 1.9817,                       !- X,Y,Z Vertex 1 {m}
  0.508, 0, 1.0671,                       !- X,Y,Z Vertex 2 {m}
  14.735, 0, 1.0671,                      !- X,Y,Z Vertex 3 {m}
  14.735, 0, 1.9817;                      !- X,Y,Z Vertex 4 {m}

OS:Output:Meter,
  {f67d34bf-e3e9-4994-81c0-3cebcf46deab}, !- Handle
  HeatRejection:Electricity,              !- Name
  hourly,                                 !- Reporting Frequency
  False,                                  !- Meter File Only
  False;                                  !- Cumulative

OS:Building,
  {a9018b0d-1140-480c-ad97-5d7c5ce1e63a}, !- Handle
  -QuickServiceRestaurant-ASHRAE 169-2006-1A created: 2017-11-09 21:39:29 +0000, !- Name
  ,                                       !- Building Sector Type
  0,                                      !- North Axis {deg}
  ,                                       !- Nominal Floor to Floor Height {m}
  ,                                       !- Space Type Name
  {3dec427b-3da9-4396-a282-41f0e031710f}, !- Default Construction Set Name
  ,                                       !- Default Schedule Set Name
  1,                                      !- Standards Number of Stories
  0,                                      !- Standards Number of Above Ground Stories
  QuickServiceRestaurant;                 !- Standards Building Type

OS:RunPeriod,
  {814e5322-99c1-43fb-9f3f-8296f71fe1a0}, !- Handle
  Run Period 1,                           !- Name
  1,                                      !- Begin Month
  1,                                      !- Begin Day of Month
  12,                                     !- End Month
  31,                                     !- End Day of Month
  No,                                     !- Use Weather File Holidays and Special Days
  No,                                     !- Use Weather File Daylight Saving Period
  No,                                     !- Apply Weekend Holiday Rule
  Yes,                                    !- Use Weather File Rain Indicators
  Yes,                                    !- Use Weather File Snow Indicators
  1;                                      !- Number of Times Runperiod to be Repeated

OS:YearDescription,
  {15371ed3-44a1-4c38-83d0-975d2dc95c9f}, !- Handle
  ,                                       !- Calendar Year
  Sunday;                                 !- Day of Week for Start Day

OS:Surface,
  {1886e9d6-0ad5-47fb-beb8-bc34ef0d6a40}, !- Handle
  Dining_Wall_North-PPAutoCreateOther,    !- Name
  Wall,                                   !- Surface Type
  ,                                       !- Construction Name
  {f0ebcc55-d119-496e-bbf0-e492a0d831a0}, !- Space Name
  Surface,                                !- Outside Boundary Condition
  {1b906422-6f65-479c-b077-9335fc67dcd4}, !- Outside Boundary Condition Object
  NoSun,                                  !- Sun Exposure
  NoWind,                                 !- Wind Exposure
  ,                                       !- View Factor to Ground
  ,                                       !- Number of Vertices
  0, 7.6214, 3.0488,                      !- X,Y,Z Vertex 1 {m}
  0, 7.6214, 0,                           !- X,Y,Z Vertex 2 {m}
  15.2428, 7.6214, 0,                     !- X,Y,Z Vertex 3 {m}
  15.2428, 7.6214, 3.0488;                !- X,Y,Z Vertex 4 {m}

OS:ShadowCalculation,
  {25010327-174c-4e2d-b748-a4488d2ca099}, !- Handle
  15000,                                  !- Calculation Frequency
  15000;                                  !- Maximum Figures in Shadow Overlap Calculations

OS:Surface,
  {e4d9134c-5e57-4e16-8394-b7ac23fa6c14}, !- Handle
  Kitchen_Floor,                          !- Name
  Floor,                                  !- Surface Type
  ,                                       !- Construction Name
  {f0ebcc55-d119-496e-bbf0-e492a0d831a0}, !- Space Name
  Ground,                                 !- Outside Boundary Condition
  ,                                       !- Outside Boundary Condition Object
  NoSun,                                  !- Sun Exposure
  NoWind,                                 !- Wind Exposure
  ,                                       !- View Factor to Ground
  ,                                       !- Number of Vertices
  15.2428, 15.2428, 0,                    !- X,Y,Z Vertex 1 {m}
  15.2428, 7.6214, 0,                     !- X,Y,Z Vertex 2 {m}
  0, 7.6214, 0,                           !- X,Y,Z Vertex 3 {m}
  0, 15.2428, 0;                          !- X,Y,Z Vertex 4 {m}

OS:SubSurface,
  {677724cc-9a0f-4315-8dd4-c8469521e21f}, !- Handle
  Dining_Wall_West_Window,                !- Name
  FixedWindow,                            !- Sub Surface Type
  ,                                       !- Construction Name
  {95188dd8-4b4f-4593-9d92-658f68b00745}, !- Surface Name
  ,                                       !- Outside Boundary Condition Object
  ,                                       !- View Factor to Ground
  ,                                       !- Shading Control Name
  ,                                       !- Frame and Divider Name
  1,                                      !- Multiplier
  ,                                       !- Number of Vertices
  0, 7.3673, 1.9817,                      !- X,Y,Z Vertex 1 {m}
  0, 7.3673, 1.0671,                      !- X,Y,Z Vertex 2 {m}
  0, 0.254, 1.0671,                       !- X,Y,Z Vertex 3 {m}
  0, 0.254, 1.9817;                       !- X,Y,Z Vertex 4 {m}

OS:Surface,
  {948a4ff7-a6de-4bc7-bcf5-7d8754540b81}, !- Handle
  Kitchen_Wall_West,                      !- Name
  Wall,                                   !- Surface Type
  ,                                       !- Construction Name
  {f0ebcc55-d119-496e-bbf0-e492a0d831a0}, !- Space Name
  Outdoors,                               !- Outside Boundary Condition
  ,                                       !- Outside Boundary Condition Object
  SunExposed,                             !- Sun Exposure
  WindExposed,                            !- Wind Exposure
  ,                                       !- View Factor to Ground
  ,                                       !- Number of Vertices
  0, 15.2428, 3.0488,                     !- X,Y,Z Vertex 1 {m}
  0, 15.2428, 0,                          !- X,Y,Z Vertex 2 {m}
  0, 7.6214, 0,                           !- X,Y,Z Vertex 3 {m}
  0, 7.6214, 3.0488;                      !- X,Y,Z Vertex 4 {m}

OS:Surface,
  {1b906422-6f65-479c-b077-9335fc67dcd4}, !- Handle
  Dining_Wall_North,                      !- Name
  Wall,                                   !- Surface Type
  ,                                       !- Construction Name
  {c9d6931b-992a-4941-8366-2a2f321098b6}, !- Space Name
  Surface,                                !- Outside Boundary Condition
  {1886e9d6-0ad5-47fb-beb8-bc34ef0d6a40}, !- Outside Boundary Condition Object
  NoSun,                                  !- Sun Exposure
  NoWind,                                 !- Wind Exposure
  ,                                       !- View Factor to Ground
  ,                                       !- Number of Vertices
  15.2428, 7.6214, 3.0488,                !- X,Y,Z Vertex 1 {m}
  15.2428, 7.6214, 0,                     !- X,Y,Z Vertex 2 {m}
  0, 7.6214, 0,                           !- X,Y,Z Vertex 3 {m}
  0, 7.6214, 3.0488;                      !- X,Y,Z Vertex 4 {m}

OS:Timestep,
  {bb833d52-3ea2-4a33-9b3c-f18e5d68e8b2}, !- Handle
  4;                                      !- Number of Timesteps per Hour

OS:Surface,
  {2ce37724-cbd0-415b-b3d0-c8cc7bf69a5f}, !- Handle
  Dining_Floor,                           !- Name
  Floor,                                  !- Surface Type
  ,                                       !- Construction Name
  {c9d6931b-992a-4941-8366-2a2f321098b6}, !- Space Name
  Ground,                                 !- Outside Boundary Condition
  ,                                       !- Outside Boundary Condition Object
  NoSun,                                  !- Sun Exposure
  NoWind,                                 !- Wind Exposure
  ,                                       !- View Factor to Ground
  ,                                       !- Number of Vertices
  15.2428, 7.6214, 0,                     !- X,Y,Z Vertex 1 {m}
  15.2428, 0, 0,                          !- X,Y,Z Vertex 2 {m}
  0, 0, 0,                                !- X,Y,Z Vertex 3 {m}
  0, 7.6214, 0;                           !- X,Y,Z Vertex 4 {m}

OS:Facility,
  {e51c9442-708f-4f1c-ba08-7f31d72daa6d}; !- Handle

OS:BuildingStory,
  {43225e6e-09f5-41b9-a4cc-46277e060cd0}, !- Handle
  Building Story 1,                       !- Name
  0,                                      !- Nominal Z Coordinate {m}
  ,                                       !- Nominal Floor to Floor Height {m}
  ,                                       !- Default Construction Set Name
  ,                                       !- Default Schedule Set Name
  ;                                       !- Group Rendering Name

OS:SpaceType,
  {611421cb-f652-4935-a859-857243d4fa74}, !- Handle
  QuickServiceRestaurant Dining,          !- Name
  ,                                       !- Default Construction Set Name
  {06ea1705-1f06-4977-8035-7e885f306df7}, !- Default Schedule Set Name
  {be299083-a4e6-488d-8723-b528b00011e9}, !- Group Rendering Name
  {d80a3eaa-d461-45d8-8f72-4e21d2c90a60}, !- Design Specification Outdoor Air Object Name
  QuickServiceRestaurant,                 !- Standards Building Type
  Dining;                                 !- Standards Space Type

OS:Rendering:Color,
  {994c42ae-65a6-4582-836e-6df2b0f626ab}, !- Handle
  QuickServiceRestaurant Dining,          !- Name
  31,                                     !- Rendering Red Value
  169,                                    !- Rendering Green Value
  34;                                     !- Rendering Blue Value

OS:SpaceType,
  {5d32245e-56dc-4a01-9c1e-28db0443f6c8}, !- Handle
  QuickServiceRestaurant Kitchen,         !- Name
  ,                                       !- Default Construction Set Name
  {c8b00cf6-3eb0-485f-b946-dc1d238b0e85}, !- Default Schedule Set Name
  {45927811-582d-422d-98a0-46f35eb37f96}, !- Group Rendering Name
  {5756d5a0-1804-4130-b53d-866145d0f61e}, !- Design Specification Outdoor Air Object Name
  QuickServiceRestaurant,                 !- Standards Building Type
  Kitchen;                                !- Standards Space Type

OS:Rendering:Color,
  {059a561a-51d8-4576-9a70-8a20249a6886}, !- Handle
  QuickServiceRestaurant Kitchen,         !- Name
  78,                                     !- Rendering Red Value
  222,                                    !- Rendering Green Value
  133;                                    !- Rendering Blue Value

OS:Rendering:Color,
  {be299083-a4e6-488d-8723-b528b00011e9}, !- Handle
  QuickServiceRestaurant Dining 1,        !- Name
  31,                                     !- Rendering Red Value
  169,                                    !- Rendering Green Value
  34;                                     !- Rendering Blue Value

OS:People:Definition,
  {51bfea7c-8615-47fa-b12d-956ea32d27f3}, !- Handle
  QuickServiceRestaurant Dining People Definition, !- Name
  People/Area,                            !- Number of People Calculation Method
  ,                                       !- Number of People {people}
  0.753473729169681,                      !- People per Space Floor Area {person/m2}
  ,                                       !- Space Floor Area per Person {m2/person}
  0.3;                                    !- Fraction Radiant

OS:People,
  {21e8dae0-cabf-4ae3-9cf2-04da3cd496f4}, !- Handle
  QuickServiceRestaurant Dining People,   !- Name
  {51bfea7c-8615-47fa-b12d-956ea32d27f3}, !- People Definition Name
  {611421cb-f652-4935-a859-857243d4fa74}, !- Space or SpaceType Name
  ,                                       !- Number of People Schedule Name
  ,                                       !- Activity Level Schedule Name
  ,                                       !- Surface Name/Angle Factor List Name
  {48389647-e2f8-4547-9827-691145c1726f}, !- Work Efficiency Schedule Name
  {637ea2b3-a17f-45d7-8a97-388c54691d4a}, !- Clothing Insulation Schedule Name
  {82c42624-49ca-4722-beeb-203df5d27359}; !- Air Velocity Schedule Name

OS:Schedule:Ruleset,
  {637ea2b3-a17f-45d7-8a97-388c54691d4a}, !- Handle
  Clothing Schedule,                      !- Name
  {5f90b341-4397-4e8e-9744-1a67c7ce9227}, !- Schedule Type Limits Name
  {5bf4215a-dbf8-4d3d-a4e9-6eb170e52f27}; !- Default Day Schedule Name

OS:Schedule:Day,
  {5bf4215a-dbf8-4d3d-a4e9-6eb170e52f27}, !- Handle
  Clothing Schedule Default Winter Clothes, !- Name
  {5f90b341-4397-4e8e-9744-1a67c7ce9227}, !- Schedule Type Limits Name
  ,                                       !- Interpolate to Timestep
  24,                                     !- Hour 1
  0,                                      !- Minute 1
  1;                                      !- Value Until Time 1

OS:Schedule:Rule,
  {b5222cf1-e9d6-47a0-8359-327c493f3d92}, !- Handle
  Schedule Rule 1,                        !- Name
  {637ea2b3-a17f-45d7-8a97-388c54691d4a}, !- Schedule Ruleset Name
  0,                                      !- Rule Order
  {84d885bc-4bc7-4bc0-bece-25ac435063b7}, !- Day Schedule Name
  ,                                       !- Apply Sunday
  ,                                       !- Apply Monday
  ,                                       !- Apply Tuesday