
OS:Version,
  {63502c05-735d-4624-8cc8-190475e99b8e}, !- Handle
  3.2.1;                                  !- Version Identifier

OS:Schedule:Constant,
  {6fd32684-53d2-4bea-a13a-752559a78b2d}, !- Handle
  Always On Discrete,                     !- Name
  {cbd01d28-3d50-4cfe-b805-58d7201b2666}, !- Schedule Type Limits Name
  1;                                      !- Value

OS:ScheduleTypeLimits,
  {cbd01d28-3d50-4cfe-b805-58d7201b2666}, !- Handle
  Always On Discrete Limits,              !- Name
  0,                                      !- Lower Limit Value
  1,                                      !- Upper Limit Value
  Discrete,                               !- Numeric Type
  Availability;                           !- Unit Type

OS:Timestep,
  {b0fa043b-3e91-4705-b798-a26bbea47620}, !- Handle
  6;                                      !- Number of Timesteps per Hour

OS:Sizing:Parameters,
  {c91effa6-883c-45fc-a245-730a284989db}, !- Handle
  1.0,                                    !- Heating Sizing Factor
  1.0,                                    !- Cooling Sizing Factor
  6;                                      !- Timesteps in Averaging Window

OS:ConvergenceLimits,
  {22dfffa1-e5a0-416e-b4d1-616efa1df123}, !- Handle
  1,                                      !- Minimum System Timestep {minutes}
  20;                                     !- Maximum HVAC Iterations

OS:Surface,
  {536547a8-0ff7-41c8-95f3-7331a5af3d86}, !- Handle
  ER_Exam3_Mult4_Flr_1_Wall_East,         !- Name
  Wall,                                   !- Surface Type
  ,                                       !- Construction Name
  {16b36206-de28-4cc5-a003-3fd3fdc223f7}, !- Space Name
  Outdoors,                               !- Outside Boundary Condition
  ,                                       !- Outside Boundary Condition Object
  SunExposed,                             !- Sun Exposure
  WindExposed,                            !- Wind Exposure
  ,                                       !- View Factor to Ground
  ,                                       !- Number of Vertices
  70.104, 4.572, 4.2683,                  !- X,Y,Z Vertex 1 {m}
  70.104, 4.572, 0,                       !- X,Y,Z Vertex 2 {m}
  70.104, 9.144, 0,                       !- X,Y,Z Vertex 3 {m}
  70.104, 9.144, 4.2683;                  !- X,Y,Z Vertex 4 {m}

OS:Connection,
  {ba23bdb8-dd86-42cd-9a6b-dd4b0ce3e554}, !- Handle
  ,                                       !- Source Object
  11,                                     !- Outlet Port
  ,                                       !- Target Object
  2;                                      !- Inlet Port

OS:Space,
  {16b36206-de28-4cc5-a003-3fd3fdc223f7}, !- Handle
  ER_Exam3_Mult4_Flr_1,                   !- Name
  {376ca5e0-70e1-4a6d-97ca-2d24f08df598}, !- Space Type Name
  ,                                       !- Default Construction Set Name
  ,                                       !- Default Schedule Set Name
  0,                                      !- Direction of Relative North {deg}
  0,                                      !- X Origin {m}
  0,                                      !- Y Origin {m}
  0,                                      !- Z Origin {m}
  {2f9b93ac-e3ee-4d8f-aca2-cc220a8ca3b2}, !- Building Story Name
  {449f5498-2139-4332-a66c-084b6a118b6c}, !- Thermal Zone Name
  Yes;                                    !- Part of Total Floor Area

OS:Surface,
  {b01f4393-b28d-4f5f-abf9-74b558947393}, !- Handle
  Corridor_NW_Flr_4_Wall_3_East,          !- Name
  Wall,                                   !- Surface Type
  ,                                       !- Construction Name
  {4b0352d7-5b15-44a5-874c-f4c860e83600}, !- Space Name
  Outdoors,                               !- Outside Boundary Condition
  ,                                       !- Outside Boundary Condition Object
  SunExposed,                             !- Sun Exposure
  WindExposed,                            !- Wind Exposure
  ,                                       !- View Factor to Ground
  ,                                       !- Number of Vertices
  65.532, 42.672, 17.0732,                !- X,Y,Z Vertex 1 {m}
  65.532, 42.672, 12.8049,                !- X,Y,Z Vertex 2 {m}
  65.532, 48.768, 12.8049,                !- X,Y,Z Vertex 3 {m}
  65.532, 48.768, 17.0732;                !- X,Y,Z Vertex 4 {m}

OS:Connection,
  {f6b1f296-5c01-46aa-93fd-ad308d3066dc}, !- Handle
  ,                                       !- Source Object
  11,                                     !- Outlet Port
  ,                                       !- Target Object
  2;                                      !- Inlet Port

OS:Space,
  {4b0352d7-5b15-44a5-874c-f4c860e83600}, !- Handle
  Corridor_NW_Flr_4,                      !- Name
  {ad74f68b-e5c5-462d-8a41-c3e1bbfab0c3}, !- Space Type Name
  ,                                       !- Default Construction Set Name
  ,                                       !- Default Schedule Set Name
  0,                                      !- Direction of Relative North {deg}
  0,                                      !- X Origin {m}
  0,                                      !- Y Origin {m}
  0,                                      !- Z Origin {m}
  {e7e41f23-9f0c-4398-94c7-e8cdc2557345}, !- Building Story Name
  {819ee538-8343-41a5-aed1-28aaad164ca0}, !- Thermal Zone Name
  Yes;                                    !- Part of Total Floor Area

OS:Surface,
  {afe5b58f-e6c5-4880-9755-cff32930c37a}, !- Handle
  IC_PatRoom2_Flr_2_Wall_West,            !- Name
  Wall,                                   !- Surface Type
  ,                                       !- Construction Name
  {8ec78f13-57f2-4f0e-9746-f05360546e20}, !- Space Name
  Outdoors,                               !- Outside Boundary Condition
  ,                                       !- Outside Boundary Condition Object
  SunExposed,                             !- Sun Exposure
  WindExposed,                            !- Wind Exposure
  ,                                       !- View Factor to Ground
  ,                                       !- Number of Vertices
  0, 53.34, 8.5366,                       !- X,Y,Z Vertex 1 {m}
  0, 53.34, 4.2683,                       !- X,Y,Z Vertex 2 {m}
  0, 48.768, 4.2683,                      !- X,Y,Z Vertex 3 {m}
  0, 48.768, 8.5366;                      !- X,Y,Z Vertex 4 {m}

OS:Connection,
  {2e9eafa7-6887-4f63-8edd-6b7bf9cfad9b}, !- Handle
  ,                                       !- Source Object
  11,                                     !- Outlet Port
  ,                                       !- Target Object
  2;                                      !- Inlet Port

OS:Space,
  {8ec78f13-57f2-4f0e-9746-f05360546e20}, !- Handle
  IC_PatRoom2_Flr_2,                      !- Name
  {db26f5c2-7b21-4952-a1aa-d1f475780078}, !- Space Type Name
  ,                                       !- Default Construction Set Name
  ,                                       !- Default Schedule Set Name
  0,                                      !- Direction of Relative North {deg}
  0,                                      !- X Origin {m}
  0,                                      !- Y Origin {m}
  0,                                      !- Z Origin {m}
  {50b510dc-8152-4998-9d77-e15bb77da0bb}, !- Building Story Name
  {c8f68b2f-1ac1-4414-81f3-d633d44259ea}, !- Thermal Zone Name
  Yes;                                    !- Part of Total Floor Area

OS:Connection,
  {ca5e662f-0c0b-485b-8519-f073cfdc0a69}, !- Handle
  ,                                       !- Source Object
  11,                                     !- Outlet Port
  ,                                       !- Target Object
  2;                                      !- Inlet Port

OS:Space,
  {e141e567-31a6-4982-92aa-a4d8a75baef0}, !- Handle
  ER_Trauma1_Flr_1,                       !- Name
  {ac45c777-f1da-410a-87c0-8f16ff7f88f1}, !- Space Type Name
  ,                                       !- Default Construction Set Name
  ,                                       !- Default Schedule Set Name
  0,                                      !- Direction of Relative North {deg}
  0,                                      !- X Origin {m}
  0,                                      !- Y Origin {m}
  0,                                      !- Z Origin {m}
  {2f9b93ac-e3ee-4d8f-aca2-cc220a8ca3b2}, !- Building Story Name
  {aabba752-1bed-41da-b371-b93d273e7fd9}, !- Thermal Zone Name
  Yes;                                    !- Part of Total Floor Area

OS:Surface,
  {50a9c7ad-5570-4cf0-be6a-bfaa0e539914}, !- Handle
  Corridor_Flr_1_Wall_South,              !- Name
  Wall,                                   !- Surface Type
  ,                                       !- Construction Name
  {1168441b-e4e6-4d44-a00f-18b75cc06a24}, !- Space Name
  Outdoors,                               !- Outside Boundary Condition
  ,                                       !- Outside Boundary Condition Object
  SunExposed,                             !- Sun Exposure
  WindExposed,                            !- Wind Exposure
  ,                                       !- View Factor to Ground
  ,                                       !- Number of Vertices
  28.956, 0, 4.2683,                      !- X,Y,Z Vertex 1 {m}
  28.956, 0, 0,                           !- X,Y,Z Vertex 2 {m}
  39.624, 0, 0,                           !- X,Y,Z Vertex 3 {m}
  39.624, 0, 4.2683;                      !- X,Y,Z Vertex 4 {m}

OS:Connection,
  {8680cc80-7a6d-4b3a-a4f3-35f5af7bc22f}, !- Handle
  ,                                       !- Source Object
  11,                                     !- Outlet Port
  ,                                       !- Target Object
  2;                                      !- Inlet Port

OS:Space,
  {1168441b-e4e6-4d44-a00f-18b75cc06a24}, !- Handle
  Corridor_Flr_1,                         !- Name
  {ad74f68b-e5c5-462d-8a41-c3e1bbfab0c3}, !- Space Type Name
  ,                                       !- Default Construction Set Name
  ,                                       !- Default Schedule Set Name
  0,                                      !- Direction of Relative North {deg}
  0,                                      !- X Origin {m}
  0,                                      !- Y Origin {m}
  0,                                      !- Z Origin {m}
  {2f9b93ac-e3ee-4d8f-aca2-cc220a8ca3b2}, !- Building Story Name
  {e639e428-e9e2-412b-93a9-8c1b96871937}, !- Thermal Zone Name
  Yes;                                    !- Part of Total Floor Area

OS:SubSurface,
  {d28f3ce6-4398-4a00-8d74-b7207b6c0309}, !- Handle
  ER_NurseStn_Lobby_Flr_1_Wall_1_East_Window, !- Name
  FixedWindow,                            !- Sub Surface Type
  ,                                       !- Construction Name
  {8d178f1e-a3c7-42e4-b5f7-438716cdfe5c}, !- Surface Name
  ,                                       !- Outside Boundary Condition Object
  ,                                       !- View Factor to Ground
  ,                                       !- Frame and Divider Name
  1,                                      !- Multiplier
  ,                                       !- Number of Vertices
  70.104, 14.202, 2.134,                  !- X,Y,Z Vertex 1 {m}
  70.104, 14.202, 0.914,                  !- X,Y,Z Vertex 2 {m}
  70.104, 39.138, 0.914,                  !- X,Y,Z Vertex 3 {m}
  70.104, 39.138, 2.134;                  !- X,Y,Z Vertex 4 {m}

OS:Surface,
  {8d178f1e-a3c7-42e4-b5f7-438716cdfe5c}, !- Handle
  ER_NurseStn_Lobby_Flr_1_Wall_1_East,    !- Name
  Wall,                                   !- Surface Type
  ,                                       !- Construction Name
  {e421471b-c574-4e8a-b7a8-245348dd3775}, !- Space Name
  Outdoors,                               !- Outside Boundary Condition
  ,                                       !- Outside Boundary Condition Object
  SunExposed,                             !- Sun Exposure
  WindExposed,                            !- Wind Exposure
  ,                                       !- View Factor to Ground
  ,                                       !- Number of Vertices
  70.104, 13.716, 4.2683,                 !- X,Y,Z Vertex 1 {m}
  70.104, 13.716, 0,                      !- X,Y,Z Vertex 2 {m}
  70.104, 39.624, 0,                      !- X,Y,Z Vertex 3 {m}
  70.104, 39.624, 4.2683;                 !- X,Y,Z Vertex 4 {m}

OS:Connection,
  {3e6bf527-15bc-43ff-ac95-3592754417e1}, !- Handle
  ,                                       !- Source Object
  11,                                     !- Outlet Port
  ,                                       !- Target Object
  2;                                      !- Inlet Port

OS:Space,
  {e421471b-c574-4e8a-b7a8-245348dd3775}, !- Handle
  ER_NurseStn_Lobby_Flr_1,                !- Name
  {c37c5232-687d-4a13-8e06-89587efe7ad7}, !- Space Type Name
  ,                                       !- Default Construction Set Name
  ,                                       !- Default Schedule Set Name
  0,                                      !- Direction of Relative North {deg}
  0,                                      !- X Origin {m}
  0,                                      !- Y Origin {m}
  0,                                      !- Z Origin {m}
  {2f9b93ac-e3ee-4d8f-aca2-cc220a8ca3b2}, !- Building Story Name
  {e64abd42-e349-4192-8577-0ba0a18a3be5}, !- Thermal Zone Name
  Yes;                                    !- Part of Total Floor Area

OS:Surface,
  {fa9db250-4eaa-4e84-a7c0-b8aee3dc0215}, !- Handle
  ICU_Flr_2_Wall_West,                    !- Name
  Wall,                                   !- Surface Type
  ,                                       !- Construction Name
  {e8233850-2c26-457b-b983-e0a87242a5d7}, !- Space Name
  Outdoors,                               !- Outside Boundary Condition
  ,                                       !- Outside Boundary Condition Object
  SunExposed,                             !- Sun Exposure
  WindExposed,                            !- Wind Exposure
  ,                                       !- View Factor to Ground
  ,                                       !- Number of Vertices
  0, 21.3415, 8.5366,                     !- X,Y,Z Vertex 1 {m}
  0, 21.3415, 4.2683,                     !- X,Y,Z Vertex 2 {m}
  0, 0, 4.2683,                           !- X,Y,Z Vertex 3 {m}
  0, 0, 8.5366;                           !- X,Y,Z Vertex 4 {m}

OS:Connection,
  {0b860b21-947f-4260-8066-dbb37a697374}, !- Handle
  ,                                       !- Source Object
  11,                                     !- Outlet Port
  ,                                       !- Target Object
  2;                                      !- Inlet Port

OS:Space,
  {e8233850-2c26-457b-b983-e0a87242a5d7}, !- Handle
  ICU_Flr_2,                              !- Name
  {dc493559-12f2-4c17-9717-70894db63860}, !- Space Type Name
  ,                                       !- Default Construction Set Name
  ,                                       !- Default Schedule Set Name
  0,                                      !- Direction of Relative North {deg}
  0,                                      !- X Origin {m}
  0,                                      !- Y Origin {m}
  0,                                      !- Z Origin {m}
  {50b510dc-8152-4998-9d77-e15bb77da0bb}, !- Building Story Name
  {a9b1661e-3add-4368-a76c-b3fef61815b9}, !- Thermal Zone Name
  Yes;                                    !- Part of Total Floor Area

OS:Surface,
  {7ef813b6-eb2c-42a4-a286-6d04e94df410}, !- Handle
  NurseStn_Lobby_Flr_4_Wall_3_West,       !- Name
  Wall,                                   !- Surface Type
  ,                                       !- Construction Name
  {31390124-80ad-4222-b08a-01be2ad61163}, !- Space Name
  Surface,                                !- Outside Boundary Condition
  {50cdc8e0-460e-4ed9-98f3-efb298b147f7}, !- Outside Boundary Condition Object
  NoSun,                                  !- Sun Exposure
  NoWind,                                 !- Wind Exposure
  ,                                       !- View Factor to Ground
  ,                                       !- Number of Vertices
  28.956, 19.812, 17.0732,                !- X,Y,Z Vertex 1 {m}
  28.956, 19.812, 12.8049,                !- X,Y,Z Vertex 2 {m}
  28.956, 10.668, 12.8049,                !- X,Y,Z Vertex 3 {m}
  28.956, 10.668, 17.0732;                !- X,Y,Z Vertex 4 {m}

OS:Connection,
  {7f66ef4c-e88a-4469-84ac-d2c872af167e}, !- Handle
  ,                                       !- Source Object
  11,                                     !- Outlet Port
  ,                                       !- Target Object
  2;                                      !- Inlet Port

OS:Space,
  {31390124-80ad-4222-b08a-01be2ad61163}, !- Handle
  NurseStn_Lobby_Flr_4,                   !- Name
  {08c61027-5027-44c5-8a8b-f93b574722df}, !- Space Type Name
  ,                                       !- Default Construction Set Name
  ,                                       !- Default Schedule Set Name
  0,                                      !- Direction of Relative North {deg}
  0,                                      !- X Origin {m}
  0,                                      !- Y Origin {m}
  0,                                      !- Z Origin {m}
  {e7e41f23-9f0c-4398-94c7-e8cdc2557345}, !- Building Story Name
  {46a88368-a41b-46a3-a7fe-2359aa7e9ddb}, !- Thermal Zone Name
  Yes;                                    !- Part of Total Floor Area

OS:Surface,
  {1cce1493-7595-436a-bae6-5f99284a3768}, !- Handle
  OR_NurseStn_Lobby_Flr_2_Wall_2_North,   !- Name
  Wall,                                   !- Surface Type
  ,                                       !- Construction Name
  {5fa7a66e-65f8-47fe-850f-4aff5015d62b}, !- Space Name
  Surface,                                !- Outside Boundary Condition
  {be5279e4-d34b-40c7-b768-983039f55c58}, !- Outside Boundary Condition Object
  NoSun,                                  !- Sun Exposure
  NoWind,                                 !- Wind Exposure
  ,                                       !- View Factor to Ground
  ,                                       !- Number of Vertices
  48.768, 22.86, 8.5366,                  !- X,Y,Z Vertex 1 {m}
  48.768, 22.86, 4.2683,                  !- X,Y,Z Vertex 2 {m}
  39.624, 22.86, 4.2683,                  !- X,Y,Z Vertex 3 {m}
  39.624, 22.86, 8.5366;                  !- X,Y,Z Vertex 4 {m}

OS:Connection,
  {256b3194-0009-4522-a1b2-be94e5745a1b}, !- Handle
  ,                                       !- Source Object
  11,                                     !- Outlet Port
  ,                                       !- Target Object
  2;                                      !- Inlet Port

OS:Space,
  {5fa7a66e-65f8-47fe-850f-4aff5015d62b}, !- Handle
  OR_NurseStn_Lobby_Flr_2,                !- Name
  {08c61027-5027-44c5-8a8b-f93b574722df}, !- Space Type Name
  ,                                       !- Default Construction Set Name
  ,                                       !- Default Schedule Set Name
  0,                                      !- Direction of Relative North {deg}
  0,                                      !- X Origin {m}
  0,                                      !- Y Origin {m}
  0,                                      !- Z Origin {m}
  {50b510dc-8152-4998-9d77-e15bb77da0bb}, !- Building Story Name
  {dcffa4d8-1692-49e2-a5a2-8627b8b448a4}, !- Thermal Zone Name
  Yes;                                    !- Part of Total Floor Area

OS:Surface,
  {75b7e856-5aee-441b-bd17-0a80eceb799b}, !- Handle
  PatRoom5_Mult10_Flr_3_Wall_West,        !- Name
  Wall,                                   !- Surface Type
  ,                                       !- Construction Name
  {2294b9a3-413c-42bf-8af1-ea3aba2f3837}, !- Space Name
  Surface,                                !- Outside Boundary Condition
  {aa0ec6ad-6024-410f-bd62-3b9e8d9f8f58}, !- Outside Boundary Condition Object
  NoSun,                                  !- Sun Exposure
  NoWind,                                 !- Wind Exposure
  ,                                       !- View Factor to Ground
  ,                                       !- Number of Vertices
  39.624, 53.34, 12.8049,                 !- X,Y,Z Vertex 1 {m}
  39.624, 53.34, 8.5366,                  !- X,Y,Z Vertex 2 {m}
  39.624, 48.768, 8.5366,                 !- X,Y,Z Vertex 3 {m}
  39.624, 48.768, 12.8049;                !- X,Y,Z Vertex 4 {m}

OS:Connection,
  {fecb179e-a394-4c09-9704-ae0179976cf6}, !- Handle
  ,                                       !- Source Object
  11,                                     !- Outlet Port
  ,                                       !- Target Object
  2;                                      !- Inlet Port

OS:Space,
  {2294b9a3-413c-42bf-8af1-ea3aba2f3837}, !- Handle
  PatRoom5_Mult10_Flr_3,                  !- Name
  {7d22179d-6d3b-40f6-8c83-0ab38e473ed6}, !- Space Type Name
  ,                                       !- Default Construction Set Name
  ,                                       !- Default Schedule Set Name
  0,                                      !- Direction of Relative North {deg}
  0,                                      !- X Origin {m}
  0,                                      !- Y Origin {m}
  0,                                      !- Z Origin {m}
  {013cd229-16b8-442a-9020-28185a5eb7a7}, !- Building Story Name
  {dae3618e-eb4e-4cc3-a829-ce497f276867}, !- Thermal Zone Name
  Yes;                                    !- Part of Total Floor Area

OS:Surface,
  {944fcf1d-2911-419c-a398-62bbc2143ab9}, !- Handle
  Corridor_Flr_2_Wall_South,              !- Name
  Wall,                                   !- Surface Type
  ,                                       !- Construction Name
  {2870f103-d956-457d-b911-977241d8c35a}, !- Space Name
  Outdoors,                               !- Outside Boundary Condition
  ,                                       !- Outside Boundary Condition Object
  SunExposed,                             !- Sun Exposure
  WindExposed,                            !- Wind Exposure
  ,                                       !- View Factor to Ground
  ,                                       !- Number of Vertices
  28.956, 0, 8.5366,                      !- X,Y,Z Vertex 1 {m}
  28.956, 0, 4.2683,                      !- X,Y,Z Vertex 2 {m}
  39.624, 0, 4.2683,                      !- X,Y,Z Vertex 3 {m}
  39.624, 0, 8.5366;                      !- X,Y,Z Vertex 4 {m}

OS:Connection,
  {7aae01a8-0538-4b85-9c71-ef4033f04c3b}, !- Handle
  ,                                       !- Source Object
  11,                                     !- Outlet Port
  ,                                       !- Target Object
  2;                                      !- Inlet Port

OS:Space,
  {2870f103-d956-457d-b911-977241d8c35a}, !- Handle
  Corridor_Flr_2,                         !- Name
  {ad74f68b-e5c5-462d-8a41-c3e1bbfab0c3}, !- Space Type Name
  ,                                       !- Default Construction Set Name
  ,                                       !- Default Schedule Set Name
  0,                                      !- Direction of Relative North {deg}
  0,                                      !- X Origin {m}
  0,                                      !- Y Origin {m}
  0,                                      !- Z Origin {m}
  {50b510dc-8152-4998-9d77-e15bb77da0bb}, !- Building Story Name
  {3726a791-c173-412a-8ca2-c2a5951821d6}, !- Thermal Zone Name
  Yes;                                    !- Part of Total Floor Area

OS:Surface,
  {a6a8afc1-01e4-43aa-800d-8230627da69a}, !- Handle
  ER_Trauma2_Flr_1_Floor,                 !- Name
  Floor,                                  !- Surface Type
  {a4b860e9-e6e0-4f5e-85aa-03b07267ea43}, !- Construction Name
  {dd7a92d0-924e-4003-b630-567ab7ab69ab}, !- Space Name
  Adiabatic,                              !- Outside Boundary Condition
  ,                                       !- Outside Boundary Condition Object
  NoSun,                                  !- Sun Exposure
  NoWind,                                 !- Wind Exposure
  ,                                       !- View Factor to Ground
  ,                                       !- Number of Vertices
  70.104, 53.34, 0,                       !- X,Y,Z Vertex 1 {m}
  70.104, 48.768, 0,                      !- X,Y,Z Vertex 2 {m}
  64.008, 48.768, 0,                      !- X,Y,Z Vertex 3 {m}
  64.008, 53.34, 0;                       !- X,Y,Z Vertex 4 {m}

OS:Connection,
  {ae697a91-2782-4652-92e9-f74f9cc63efc}, !- Handle
  ,                                       !- Source Object
  11,                                     !- Outlet Port
  ,                                       !- Target Object
  2;                                      !- Inlet Port

OS:Space,
  {dd7a92d0-924e-4003-b630-567ab7ab69ab}, !- Handle
  ER_Trauma2_Flr_1,                       !- Name
  {ac45c777-f1da-410a-87c0-8f16ff7f88f1}, !- Space Type Name
  ,                                       !- Default Construction Set Name
  ,                                       !- Default Schedule Set Name
  0,                                      !- Direction of Relative North {deg}
  0,                                      !- X Origin {m}
  0,                                      !- Y Origin {m}
  0,                                      !- Z Origin {m}
  {2f9b93ac-e3ee-4d8f-aca2-cc220a8ca3b2}, !- Building Story Name
  {d8c31012-2fa9-48ca-9dda-94188b53cf17}, !- Thermal Zone Name
  Yes;                                    !- Part of Total Floor Area

OS:Surface,
  {cc584830-a067-4325-91bc-26106a56b2c5}, !- Handle
  Corridor_NW_Flr_4_Wall_5_South,         !- Name
  Wall,                                   !- Surface Type
  ,                                       !- Construction Name
  {4b0352d7-5b15-44a5-874c-f4c860e83600}, !- Space Name
  Surface,                                !- Outside Boundary Condition
  {bb22825c-3e5e-4013-a58b-184f0f9bd61e}, !- Outside Boundary Condition Object
  NoSun,                                  !- Sun Exposure
  NoWind,                                 !- Wind Exposure
  ,                                       !- View Factor to Ground
  ,                                       !- Number of Vertices
  4.572, 10.668, 17.0732,                 !- X,Y,Z Vertex 1 {m}
  4.572, 10.668, 12.8049,                 !- X,Y,Z Vertex 2 {m}
  9.144, 10.668, 12.8049,                 !- X,Y,Z Vertex 3 {m}
  9.144, 10.668, 17.0732;                 !- X,Y,Z Vertex 4 {m}

OS:Surface,
  {593ca8ad-9d9c-40de-bee9-c0a04136993f}, !- Handle
  PatRoom3_Mult10_Flr_4_Wall_North,       !- Name
  Wall,                                   !- Surface Type
  {594401fd-8f71-48ab-bc7b-3d677ad6911b}, !- Construction Name
  {668fd0fa-a605-4127-8009-961514db81c7}, !- Space Name
  Adiabatic,                              !- Outside Boundary Condition
  ,                                       !- Outside Boundary Condition Object
  NoSun,                                  !- Sun Exposure
  NoWind,                                 !- Wind Exposure
  ,                                       !- View Factor to Ground
  ,                                       !- Number of Vertices
  70.104, 8.992, 17.0732,                 !- X,Y,Z Vertex 1 {m}
  70.104, 8.992, 12.8049,                 !- X,Y,Z Vertex 2 {m}
  65.532, 8.992, 12.8049,                 !- X,Y,Z Vertex 3 {m}
  65.532, 8.992, 17.0732;                 !- X,Y,Z Vertex 4 {m}

OS:Connection,
  {3feffa74-a211-4bc1-9d09-1c06287672a6}, !- Handle
  ,                                       !- Source Object
  11,                                     !- Outlet Port
  ,                                       !- Target Object
  2;                                      !- Inlet Port

OS:Space,
  {668fd0fa-a605-4127-8009-961514db81c7}, !- Handle
  PatRoom3_Mult10_Flr_4,                  !- Name
  {7d22179d-6d3b-40f6-8c83-0ab38e473ed6}, !- Space Type Name
  ,                                       !- Default Construction Set Name
  ,                                       !- Default Schedule Set Name
  0,                                      !- Direction of Relative North {deg}
  0,                                      !- X Origin {m}
  0,                                      !- Y Origin {m}
  0,                                      !- Z Origin {m}
  {e7e41f23-9f0c-4398-94c7-e8cdc2557345}, !- Building Story Name
  {bfd51904-eb1e-42b5-9223-f7356b11f904}, !- Thermal Zone Name
  Yes;                                    !- Part of Total Floor Area

OS:Connection,
  {f671ed73-72e9-44cd-8c37-20c987b58e51}, !- Handle
  ,                                       !- Source Object
  11,                                     !- Outlet Port
  ,                                       !- Target Object
  2;                                      !- Inlet Port

OS:Space,
  {f4b6e0eb-817b-405c-98f0-c425865851fb}, !- Handle
  NurseStn_Lobby_Flr_3,                   !- Name
  {08c61027-5027-44c5-8a8b-f93b574722df}, !- Space Type Name
  ,                                       !- Default Construction Set Name
  ,                                       !- Default Schedule Set Name
  0,                                      !- Direction of Relative North {deg}
  0,                                      !- X Origin {m}
  0,                                      !- Y Origin {m}
  0,                                      !- Z Origin {m}
  {013cd229-16b8-442a-9020-28185a5eb7a7}, !- Building Story Name
  {47ec087f-6ca5-4c73-8a4a-2e3df00e0fad}, !- Thermal Zone Name
  Yes;                                    !- Part of Total Floor Area

OS:Connection,
  {26b0b67a-236a-4645-98e8-76128cca8acb}, !- Handle
  ,                                       !- Source Object
  11,                                     !- Outlet Port
  ,                                       !- Target Object
  2;                                      !- Inlet Port

OS:Space,
  {75111445-9889-4e0e-bf8b-33e4ad0474cb}, !- Handle
  Office1_Flr_5,                          !- Name