
OS:Version,
  {3f514035-2e4c-437c-9c53-5ac855ef881d}, !- Handle
  3.7.0;                                  !- Version Identifier

OS:Schedule:Constant,
  {fd5e4379-25fe-4594-ae9e-8a91fcd81bfa}, !- Handle
  Always On Discrete,                     !- Name
  {d3b8d420-0c9e-474b-b033-90a3a016916b}, !- Schedule Type Limits Name
  1;                                      !- Value

OS:ScheduleTypeLimits,
  {d3b8d420-0c9e-474b-b033-90a3a016916b}, !- Handle
  Always On Discrete Limits,              !- Name
  0,                                      !- Lower Limit Value
  1,                                      !- Upper Limit Value
  Discrete,                               !- Numeric Type
  Availability;                           !- Unit Type

OS:Timestep,
  {b0fa043b-3e91-4705-b798-a26bbea47620}, !- Handle
  6;                                      !- Number of Timesteps per Hour

OS:Sizing:Parameters,
  {c91effa6-883c-45fc-a245-730a284989db}, !- Handle
  1.0,                                    !- Heating Sizing Factor
  1.0,                                    !- Cooling Sizing Factor
  6;                                      !- Timesteps in Averaging Window

OS:ConvergenceLimits,
  {22dfffa1-e5a0-416e-b4d1-616efa1df123}, !- Handle
  1,                                      !- Minimum System Timestep {minutes}
  20;                                     !- Maximum HVAC Iterations

OS:Surface,
  {536547a8-0ff7-41c8-95f3-7331a5af3d86}, !- Handle
  ER_Exam3_Mult4_Flr_1_Wall_East,         !- Name
  Wall,                                   !- Surface Type
  ,                                       !- Construction Name
  {16b36206-de28-4cc5-a003-3fd3fdc223f7}, !- Space Name
  Outdoors,                               !- Outside Boundary Condition
  ,                                       !- Outside Boundary Condition Object
  SunExposed,                             !- Sun Exposure
  WindExposed,                            !- Wind Exposure
  ,                                       !- View Factor to Ground
  ,                                       !- Number of Vertices
  70.104, 4.572, 4.2683,                  !- X,Y,Z Vertex 1 {m}
  70.104, 4.572, 0,                       !- X,Y,Z Vertex 2 {m}
  70.104, 9.144, 0,                       !- X,Y,Z Vertex 3 {m}
  70.104, 9.144, 4.2683;                  !- X,Y,Z Vertex 4 {m}

OS:Connection,
  {ba23bdb8-dd86-42cd-9a6b-dd4b0ce3e554}, !- Handle
  ,                                       !- Source Object
  11,                                     !- Outlet Port
  ,                                       !- Target Object
  2;                                      !- Inlet Port

OS:Space,
  {16b36206-de28-4cc5-a003-3fd3fdc223f7}, !- Handle
  ER_Exam3_Mult4_Flr_1,                   !- Name
  {376ca5e0-70e1-4a6d-97ca-2d24f08df598}, !- Space Type Name
  ,                                       !- Default Construction Set Name
  ,                                       !- Default Schedule Set Name
  0,                                      !- Direction of Relative North {deg}
  0,                                      !- X Origin {m}
  0,                                      !- Y Origin {m}
  0,                                      !- Z Origin {m}
  {2f9b93ac-e3ee-4d8f-aca2-cc220a8ca3b2}, !- Building Story Name
  {f835f137-a96b-428c-85bd-46723d429655}, !- Thermal Zone Name
  Yes;                                    !- Part of Total Floor Area

OS:Surface,
  {b01f4393-b28d-4f5f-abf9-74b558947393}, !- Handle
  Corridor_NW_Flr_4_Wall_3_East,          !- Name
  Wall,                                   !- Surface Type
  ,                                       !- Construction Name
  {4b0352d7-5b15-44a5-874c-f4c860e83600}, !- Space Name
  Outdoors,                               !- Outside Boundary Condition
  ,                                       !- Outside Boundary Condition Object
  SunExposed,                             !- Sun Exposure
  WindExposed,                            !- Wind Exposure
  ,                                       !- View Factor to Ground
  ,                                       !- Number of Vertices
  65.532, 42.672, 17.0732,                !- X,Y,Z Vertex 1 {m}
  65.532, 42.672, 12.8049,                !- X,Y,Z Vertex 2 {m}
  65.532, 48.768, 12.8049,                !- X,Y,Z Vertex 3 {m}
  65.532, 48.768, 17.0732;                !- X,Y,Z Vertex 4 {m}

OS:Connection,
  {f6b1f296-5c01-46aa-93fd-ad308d3066dc}, !- Handle
  ,                                       !- Source Object
  11,                                     !- Outlet Port
  ,                                       !- Target Object
  2;                                      !- Inlet Port

OS:Space,
  {4b0352d7-5b15-44a5-874c-f4c860e83600}, !- Handle
  Corridor_NW_Flr_4,                      !- Name
  {ad74f68b-e5c5-462d-8a41-c3e1bbfab0c3}, !- Space Type Name
  ,                                       !- Default Construction Set Name
  ,                                       !- Default Schedule Set Name
  0,                                      !- Direction of Relative North {deg}
  0,                                      !- X Origin {m}
  0,                                      !- Y Origin {m}
  0,                                      !- Z Origin {m}
  {e7e41f23-9f0c-4398-94c7-e8cdc2557345}, !- Building Story Name
  {bc684a5e-0d67-4056-9a22-132365bf3b2d}, !- Thermal Zone Name
  Yes;                                    !- Part of Total Floor Area

OS:Surface,
  {afe5b58f-e6c5-4880-9755-cff32930c37a}, !- Handle
  IC_PatRoom2_Flr_2_Wall_West,            !- Name
  Wall,                                   !- Surface Type
  ,                                       !- Construction Name
  {8ec78f13-57f2-4f0e-9746-f05360546e20}, !- Space Name
  Outdoors,                               !- Outside Boundary Condition
  ,                                       !- Outside Boundary Condition Object
  SunExposed,                             !- Sun Exposure
  WindExposed,                            !- Wind Exposure
  ,                                       !- View Factor to Ground
  ,                                       !- Number of Vertices
  0, 53.34, 8.5366,                       !- X,Y,Z Vertex 1 {m}
  0, 53.34, 4.2683,                       !- X,Y,Z Vertex 2 {m}
  0, 48.768, 4.2683,                      !- X,Y,Z Vertex 3 {m}
  0, 48.768, 8.5366;                      !- X,Y,Z Vertex 4 {m}

OS:Connection,
  {2e9eafa7-6887-4f63-8edd-6b7bf9cfad9b}, !- Handle
  ,                                       !- Source Object
  11,                                     !- Outlet Port
  ,                                       !- Target Object
  2;                                      !- Inlet Port

OS:Space,
  {8ec78f13-57f2-4f0e-9746-f05360546e20}, !- Handle
  IC_PatRoom2_Flr_2,                      !- Name
  {db26f5c2-7b21-4952-a1aa-d1f475780078}, !- Space Type Name
  ,                                       !- Default Construction Set Name
  ,                                       !- Default Schedule Set Name
  0,                                      !- Direction of Relative North {deg}
  0,                                      !- X Origin {m}
  0,                                      !- Y Origin {m}
  0,                                      !- Z Origin {m}
  {50b510dc-8152-4998-9d77-e15bb77da0bb}, !- Building Story Name
  {beb1e7bc-3091-4b44-8989-90aefa1482e7}, !- Thermal Zone Name
  Yes;                                    !- Part of Total Floor Area

OS:Connection,
  {ca5e662f-0c0b-485b-8519-f073cfdc0a69}, !- Handle
  ,                                       !- Source Object
  11,                                     !- Outlet Port
  ,                                       !- Target Object
  2;                                      !- Inlet Port

OS:Space,
  {e141e567-31a6-4982-92aa-a4d8a75baef0}, !- Handle
  ER_Trauma1_Flr_1,                       !- Name
  {ac45c777-f1da-410a-87c0-8f16ff7f88f1}, !- Space Type Name
  ,                                       !- Default Construction Set Name
  ,                                       !- Default Schedule Set Name
  0,                                      !- Direction of Relative North {deg}
  0,                                      !- X Origin {m}
  0,                                      !- Y Origin {m}
  0,                                      !- Z Origin {m}
  {2f9b93ac-e3ee-4d8f-aca2-cc220a8ca3b2}, !- Building Story Name
  {4f074a34-3f06-4d16-8fb4-e59200a744e3}, !- Thermal Zone Name
  Yes;                                    !- Part of Total Floor Area

OS:Surface,
  {50a9c7ad-5570-4cf0-be6a-bfaa0e539914}, !- Handle
  Corridor_Flr_1_Wall_South,              !- Name
  Wall,                                   !- Surface Type
  ,                                       !- Construction Name
  {1168441b-e4e6-4d44-a00f-18b75cc06a24}, !- Space Name
  Outdoors,                               !- Outside Boundary Condition
  ,                                       !- Outside Boundary Condition Object
  SunExposed,                             !- Sun Exposure
  WindExposed,                            !- Wind Exposure
  ,                                       !- View Factor to Ground
  ,                                       !- Number of Vertices
  28.956, 0, 4.2683,                      !- X,Y,Z Vertex 1 {m}
  28.956, 0, 0,                           !- X,Y,Z Vertex 2 {m}
  39.624, 0, 0,                           !- X,Y,Z Vertex 3 {m}
  39.624, 0, 4.2683;                      !- X,Y,Z Vertex 4 {m}

OS:Connection,
  {8680cc80-7a6d-4b3a-a4f3-35f5af7bc22f}, !- Handle
  ,                                       !- Source Object
  11,                                     !- Outlet Port
  ,                                       !- Target Object
  2;                                      !- Inlet Port

OS:Space,
  {1168441b-e4e6-4d44-a00f-18b75cc06a24}, !- Handle
  Corridor_Flr_1,                         !- Name
  {ad74f68b-e5c5-462d-8a41-c3e1bbfab0c3}, !- Space Type Name
  ,                                       !- Default Construction Set Name
  ,                                       !- Default Schedule Set Name
  0,                                      !- Direction of Relative North {deg}
  0,                                      !- X Origin {m}
  0,                                      !- Y Origin {m}
  0,                                      !- Z Origin {m}
  {2f9b93ac-e3ee-4d8f-aca2-cc220a8ca3b2}, !- Building Story Name
  {c47cc959-763b-4001-ae77-90f906306d90}, !- Thermal Zone Name
  Yes;                                    !- Part of Total Floor Area

OS:SubSurface,
  {d28f3ce6-4398-4a00-8d74-b7207b6c0309}, !- Handle
  ER_NurseStn_Lobby_Flr_1_Wall_1_East_Window, !- Name
  FixedWindow,                            !- Sub Surface Type
  ,                                       !- Construction Name
  {8d178f1e-a3c7-42e4-b5f7-438716cdfe5c}, !- Surface Name
  ,                                       !- Outside Boundary Condition Object
  ,                                       !- View Factor to Ground
  ,                                       !- Frame and Divider Name
  1,                                      !- Multiplier
  ,                                       !- Number of Vertices
  70.104, 14.202, 2.134,                  !- X,Y,Z Vertex 1 {m}
  70.104, 14.202, 0.914,                  !- X,Y,Z Vertex 2 {m}
  70.104, 39.138, 0.914,                  !- X,Y,Z Vertex 3 {m}
  70.104, 39.138, 2.134;                  !- X,Y,Z Vertex 4 {m}

OS:Surface,
  {8d178f1e-a3c7-42e4-b5f7-438716cdfe5c}, !- Handle
  ER_NurseStn_Lobby_Flr_1_Wall_1_East,    !- Name
  Wall,                                   !- Surface Type
  ,                                       !- Construction Name
  {e421471b-c574-4e8a-b7a8-245348dd3775}, !- Space Name
  Outdoors,                               !- Outside Boundary Condition
  ,                                       !- Outside Boundary Condition Object
  SunExposed,                             !- Sun Exposure
  WindExposed,                            !- Wind Exposure
  ,                                       !- View Factor to Ground
  ,                                       !- Number of Vertices
  70.104, 13.716, 4.2683,                 !- X,Y,Z Vertex 1 {m}
  70.104, 13.716, 0,                      !- X,Y,Z Vertex 2 {m}
  70.104, 39.624, 0,                      !- X,Y,Z Vertex 3 {m}
  70.104, 39.624, 4.2683;                 !- X,Y,Z Vertex 4 {m}

OS:Connection,
  {3e6bf527-15bc-43ff-ac95-3592754417e1}, !- Handle
  ,                                       !- Source Object
  11,                                     !- Outlet Port
  ,                                       !- Target Object
  2;                                      !- Inlet Port

OS:Space,
  {e421471b-c574-4e8a-b7a8-245348dd3775}, !- Handle
  ER_NurseStn_Lobby_Flr_1,                !- Name
  {c37c5232-687d-4a13-8e06-89587efe7ad7}, !- Space Type Name
  ,                                       !- Default Construction Set Name
  ,                                       !- Default Schedule Set Name
  0,                                      !- Direction of Relative North {deg}
  0,                                      !- X Origin {m}
  0,                                      !- Y Origin {m}
  0,                                      !- Z Origin {m}
  {2f9b93ac-e3ee-4d8f-aca2-cc220a8ca3b2}, !- Building Story Name
  {b28a26d3-a27c-4fa6-bf06-0ea040ac83c4}, !- Thermal Zone Name
  Yes;                                    !- Part of Total Floor Area

OS:Surface,
  {fa9db250-4eaa-4e84-a7c0-b8aee3dc0215}, !- Handle
  ICU_Flr_2_Wall_West,                    !- Name
  Wall,                                   !- Surface Type
  ,                                       !- Construction Name
  {e8233850-2c26-457b-b983-e0a87242a5d7}, !- Space Name
  Outdoors,                               !- Outside Boundary Condition
  ,                                       !- Outside Boundary Condition Object
  SunExposed,                             !- Sun Exposure
  WindExposed,                            !- Wind Exposure
  ,                                       !- View Factor to Ground
  ,                                       !- Number of Vertices
  0, 21.3415, 8.5366,                     !- X,Y,Z Vertex 1 {m}
  0, 21.3415, 4.2683,                     !- X,Y,Z Vertex 2 {m}
  0, 0, 4.2683,                           !- X,Y,Z Vertex 3 {m}
  0, 0, 8.5366;                           !- X,Y,Z Vertex 4 {m}

OS:Connection,
  {0b860b21-947f-4260-8066-dbb37a697374}, !- Handle
  ,                                       !- Source Object
  11,                                     !- Outlet Port
  ,                                       !- Target Object
  2;                                      !- Inlet Port

OS:Space,
  {e8233850-2c26-457b-b983-e0a87242a5d7}, !- Handle
  ICU_Flr_2,                              !- Name
  {dc493559-12f2-4c17-9717-70894db63860}, !- Space Type Name
  ,                                       !- Default Construction Set Name
  ,                                       !- Default Schedule Set Name
  0,                                      !- Direction of Relative North {deg}
  0,                                      !- X Origin {m}
  0,                                      !- Y Origin {m}
  0,                                      !- Z Origin {m}
  {50b510dc-8152-4998-9d77-e15bb77da0bb}, !- Building Story Name
  {c5725148-ae0b-4fcd-967f-0eb21e617a67}, !- Thermal Zone Name
  Yes;                                    !- Part of Total Floor Area

OS:Surface,
  {7ef813b6-eb2c-42a4-a286-6d04e94df410}, !- Handle
  NurseStn_Lobby_Flr_4_Wall_3_West,       !- Name
  Wall,                                   !- Surface Type
  ,                                       !- Construction Name
  {31390124-80ad-4222-b08a-01be2ad61163}, !- Space Name
  Surface,                                !- Outside Boundary Condition
  {50cdc8e0-460e-4ed9-98f3-efb298b147f7}, !- Outside Boundary Condition Object
  NoSun,                                  !- Sun Exposure
  NoWind,                                 !- Wind Exposure
  ,                                       !- View Factor to Ground
  ,                                       !- Number of Vertices
  28.956, 19.812, 17.0732,                !- X,Y,Z Vertex 1 {m}
  28.956, 19.812, 12.8049,                !- X,Y,Z Vertex 2 {m}
  28.956, 10.668, 12.8049,                !- X,Y,Z Vertex 3 {m}
  28.956, 10.668, 17.0732;                !- X,Y,Z Vertex 4 {m}

OS:Connection,
  {7f66ef4c-e88a-4469-84ac-d2c872af167e}, !- Handle
  ,                                       !- Source Object
  11,                                     !- Outlet Port
  ,                                       !- Target Object
  2;                                      !- Inlet Port

OS:Space,
  {31390124-80ad-4222-b08a-01be2ad61163}, !- Handle
  NurseStn_Lobby_Flr_4,                   !- Name
  {08c61027-5027-44c5-8a8b-f93b574722df}, !- Space Type Name
  ,                                       !- Default Construction Set Name
  ,                                       !- Default Schedule Set Name
  0,                                      !- Direction of Relative North {deg}
  0,                                      !- X Origin {m}
  0,                                      !- Y Origin {m}
  0,                                      !- Z Origin {m}
  {e7e41f23-9f0c-4398-94c7-e8cdc2557345}, !- Building Story Name
  {80f35bb7-a1a5-408e-8c7b-3e7eee78220a}, !- Thermal Zone Name
  Yes;                                    !- Part of Total Floor Area

OS:Surface,
  {1cce1493-7595-436a-bae6-5f99284a3768}, !- Handle
  OR_NurseStn_Lobby_Flr_2_Wall_2_North,   !- Name
  Wall,                                   !- Surface Type
  ,                                       !- Construction Name
  {5fa7a66e-65f8-47fe-850f-4aff5015d62b}, !- Space Name
  Surface,                                !- Outside Boundary Condition
  {be5279e4-d34b-40c7-b768-983039f55c58}, !- Outside Boundary Condition Object
  NoSun,                                  !- Sun Exposure
  NoWind,                                 !- Wind Exposure
  ,                                       !- View Factor to Ground
  ,                                       !- Number of Vertices
  48.768, 22.86, 8.5366,                  !- X,Y,Z Vertex 1 {m}
  48.768, 22.86, 4.2683,                  !- X,Y,Z Vertex 2 {m}
  39.624, 22.86, 4.2683,                  !- X,Y,Z Vertex 3 {m}
  39.624, 22.86, 8.5366;                  !- X,Y,Z Vertex 4 {m}

OS:Connection,
  {256b3194-0009-4522-a1b2-be94e5745a1b}, !- Handle
  ,                                       !- Source Object
  11,                                     !- Outlet Port
  ,                                       !- Target Object
  2;                                      !- Inlet Port

OS:Space,
  {5fa7a66e-65f8-47fe-850f-4aff5015d62b}, !- Handle
  OR_NurseStn_Lobby_Flr_2,                !- Name
  {08c61027-5027-44c5-8a8b-f93b574722df}, !- Space Type Name
  ,                                       !- Default Construction Set Name
  ,                                       !- Default Schedule Set Name
  0,                                      !- Direction of Relative North {deg}
  0,                                      !- X Origin {m}
  0,                                      !- Y Origin {m}
  0,                                      !- Z Origin {m}
  {50b510dc-8152-4998-9d77-e15bb77da0bb}, !- Building Story Name
  {4028907c-a720-490c-885c-cb7d34560494}, !- Thermal Zone Name
  Yes;                                    !- Part of Total Floor Area

OS:Surface,
  {75b7e856-5aee-441b-bd17-0a80eceb799b}, !- Handle
  PatRoom5_Mult10_Flr_3_Wall_West,        !- Name
  Wall,                                   !- Surface Type
  ,                                       !- Construction Name
  {2294b9a3-413c-42bf-8af1-ea3aba2f3837}, !- Space Name
  Surface,                                !- Outside Boundary Condition
  {aa0ec6ad-6024-410f-bd62-3b9e8d9f8f58}, !- Outside Boundary Condition Object
  NoSun,                                  !- Sun Exposure
  NoWind,                                 !- Wind Exposure
  ,                                       !- View Factor to Ground
  ,                                       !- Number of Vertices
  39.624, 53.34, 12.8049,                 !- X,Y,Z Vertex 1 {m}
  39.624, 53.34, 8.5366,                  !- X,Y,Z Vertex 2 {m}
  39.624, 48.768, 8.5366,                 !- X,Y,Z Vertex 3 {m}
  39.624, 48.768, 12.8049;                !- X,Y,Z Vertex 4 {m}

OS:Connection,
  {fecb179e-a394-4c09-9704-ae0179976cf6}, !- Handle
  ,                                       !- Source Object
  11,                                     !- Outlet Port
  ,                                       !- Target Object
  2;                                      !- Inlet Port

OS:Space,
  {2294b9a3-413c-42bf-8af1-ea3aba2f3837}, !- Handle
  PatRoom5_Mult10_Flr_3,                  !- Name
  {7d22179d-6d3b-40f6-8c83-0ab38e473ed6}, !- Space Type Name
  ,                                       !- Default Construction Set Name
  ,                                       !- Default Schedule Set Name
  0,                                      !- Direction of Relative North {deg}
  0,                                      !- X Origin {m}
  0,                                      !- Y Origin {m}
  0,                                      !- Z Origin {m}
  {013cd229-16b8-442a-9020-28185a5eb7a7}, !- Building Story Name
  {d80d152a-56a9-48ee-a46a-cdc8d1ce55f4}, !- Thermal Zone Name
  Yes;                                    !- Part of Total Floor Area

OS:Surface,
  {944fcf1d-2911-419c-a398-62bbc2143ab9}, !- Handle
  Corridor_Flr_2_Wall_South,              !- Name
  Wall,                                   !- Surface Type
  ,                                       !- Construction Name
  {2870f103-d956-457d-b911-977241d8c35a}, !- Space Name
  Outdoors,                               !- Outside Boundary Condition
  ,                                       !- Outside Boundary Condition Object
  SunExposed,                             !- Sun Exposure
  WindExposed,                            !- Wind Exposure
  ,                                       !- View Factor to Ground
  ,                                       !- Number of Vertices
  28.956, 0, 8.5366,                      !- X,Y,Z Vertex 1 {m}
  28.956, 0, 4.2683,                      !- X,Y,Z Vertex 2 {m}
  39.624, 0, 4.2683,                      !- X,Y,Z Vertex 3 {m}
  39.624, 0, 8.5366;                      !- X,Y,Z Vertex 4 {m}

OS:Connection,
  {7aae01a8-0538-4b85-9c71-ef4033f04c3b}, !- Handle
  ,                                       !- Source Object
  11,                                     !- Outlet Port
  ,                                       !- Target Object
  2;                                      !- Inlet Port

OS:Space,
  {2870f103-d956-457d-b911-977241d8c35a}, !- Handle
  Corridor_Flr_2,                         !- Name
  {ad74f68b-e5c5-462d-8a41-c3e1bbfab0c3}, !- Space Type Name
  ,                                       !- Default Construction Set Name
  ,                                       !- Default Schedule Set Name
  0,                                      !- Direction of Relative North {deg}
  0,                                      !- X Origin {m}
  0,                                      !- Y Origin {m}
  0,                                      !- Z Origin {m}
  {50b510dc-8152-4998-9d77-e15bb77da0bb}, !- Building Story Name
  {a46e909a-9ea2-4aee-a964-3207151fcea3}, !- Thermal Zone Name
  Yes;                                    !- Part of Total Floor Area

OS:Surface,
  {a6a8afc1-01e4-43aa-800d-8230627da69a}, !- Handle
  ER_Trauma2_Flr_1_Floor,                 !- Name
  Floor,                                  !- Surface Type
  {4fb2f64b-89eb-43d4-aae5-2284ef6a176a}, !- Construction Name
  {dd7a92d0-924e-4003-b630-567ab7ab69ab}, !- Space Name
  Adiabatic,                              !- Outside Boundary Condition
  ,                                       !- Outside Boundary Condition Object
  NoSun,                                  !- Sun Exposure
  NoWind,                                 !- Wind Exposure
  ,                                       !- View Factor to Ground
  ,                                       !- Number of Vertices
  70.104, 53.34, 0,                       !- X,Y,Z Vertex 1 {m}
  70.104, 48.768, 0,                      !- X,Y,Z Vertex 2 {m}
  64.008, 48.768, 0,                      !- X,Y,Z Vertex 3 {m}
  64.008, 53.34, 0;                       !- X,Y,Z Vertex 4 {m}

OS:Connection,
  {ae697a91-2782-4652-92e9-f74f9cc63efc}, !- Handle
  ,                                       !- Source Object
  11,                                     !- Outlet Port
  ,                                       !- Target Object
  2;                                      !- Inlet Port

OS:Space,
  {dd7a92d0-924e-4003-b630-567ab7ab69ab}, !- Handle
  ER_Trauma2_Flr_1,                       !- Name
  {ac45c777-f1da-410a-87c0-8f16ff7f88f1}, !- Space Type Name
  ,                                       !- Default Construction Set Name
  ,                                       !- Default Schedule Set Name
  0,                                      !- Direction of Relative North {deg}
  0,                                      !- X Origin {m}
  0,                                      !- Y Origin {m}
  0,                                      !- Z Origin {m}
  {2f9b93ac-e3ee-4d8f-aca2-cc220a8ca3b2}, !- Building Story Name
  {4f82b357-8410-45a5-b39e-1cb65920399e}, !- Thermal Zone Name
  Yes;                                    !- Part of Total Floor Area

OS:Surface,
  {cc584830-a067-4325-91bc-26106a56b2c5}, !- Handle
  Corridor_NW_Flr_4_Wall_5_South,         !- Name
  Wall,                                   !- Surface Type
  ,                                       !- Construction Name
  {4b0352d7-5b15-44a5-874c-f4c860e83600}, !- Space Name
  Surface,                                !- Outside Boundary Condition
  {bb22825c-3e5e-4013-a58b-184f0f9bd61e}, !- Outside Boundary Condition Object
  NoSun,                                  !- Sun Exposure
  NoWind,                                 !- Wind Exposure
  ,                                       !- View Factor to Ground
  ,                                       !- Number of Vertices
  4.572, 10.668, 17.0732,                 !- X,Y,Z Vertex 1 {m}
  4.572, 10.668, 12.8049,                 !- X,Y,Z Vertex 2 {m}
  9.144, 10.668, 12.8049,                 !- X,Y,Z Vertex 3 {m}
  9.144, 10.668, 17.0732;                 !- X,Y,Z Vertex 4 {m}

OS:Surface,
  {593ca8ad-9d9c-40de-bee9-c0a04136993f}, !- Handle
  PatRoom3_Mult10_Flr_4_Wall_North,       !- Name
  Wall,                                   !- Surface Type
  {236382c6-30a4-4fdd-82e8-92711c5eb9fe}, !- Construction Name
  {668fd0fa-a605-4127-8009-961514db81c7}, !- Space Name
  Adiabatic,                              !- Outside Boundary Condition
  ,                                       !- Outside Boundary Condition Object
  NoSun,                                  !- Sun Exposure
  NoWind,                                 !- Wind Exposure
  ,                                       !- View Factor to Ground
  ,                                       !- Number of Vertices
  70.104, 8.992, 17.0732,                 !- X,Y,Z Vertex 1 {m}
  70.104, 8.992, 12.8049,                 !- X,Y,Z Vertex 2 {m}
  65.532, 8.992, 12.8049,                 !- X,Y,Z Vertex 3 {m}
  65.532, 8.992, 17.0732;                 !- X,Y,Z Vertex 4 {m}

OS:Connection,
  {3feffa74-a211-4bc1-9d09-1c06287672a6}, !- Handle
  ,                                       !- Source Object
  11,                                     !- Outlet Port
  ,                                       !- Target Object
  2;                                      !- Inlet Port

OS:Space,
  {668fd0fa-a605-4127-8009-961514db81c7}, !- Handle
  PatRoom3_Mult10_Flr_4,                  !- Name
  {7d22179d-6d3b-40f6-8c83-0ab38e473ed6}, !- Space Type Name
  ,                                       !- Default Construction Set Name
  ,                                       !- Default Schedule Set Name
  0,                                      !- Direction of Relative North {deg}
  0,                                      !- X Origin {m}
  0,                                      !- Y Origin {m}
  0,                                      !- Z Origin {m}
  {e7e41f23-9f0c-4398-94c7-e8cdc2557345}, !- Building Story Name
  {fd6ba8ca-3731-4ac6-b929-04d578387af1}, !- Thermal Zone Name
  Yes;                                    !- Part of Total Floor Area

OS:Connection,
  {f671ed73-72e9-44cd-8c37-20c987b58e51}, !- Handle
  ,                                       !- Source Object
  11,                                     !- Outlet Port
  ,                                       !- Target Object
  2;                                      !- Inlet Port

OS:Space,
  {f4b6e0eb-817b-405c-98f0-c425865851fb}, !- Handle
  NurseStn_Lobby_Flr_3,                   !- Name
  {08c61027-5027-44c5-8a8b-f93b574722df}, !- Space Type Name
  ,                                       !- Default Construction Set Name
  ,                                       !- Default Schedule Set Name
  0,                                      !- Direction of Relative North {deg}
  0,                                      !- X Origin {m}
  0,                                      !- Y Origin {m}
  0,                                      !- Z Origin {m}
  {013cd229-16b8-442a-9020-28185a5eb7a7}, !- Building Story Name
  {9add6395-f23e-4e81-a8f6-d3625d20546c}, !- Thermal Zone Name
  Yes;                                    !- Part of Total Floor Area

OS:Connection,
  {26b0b67a-236a-4645-98e8-76128cca8acb}, !- Handle
  ,                                       !- Source Object
  11,                                     !- Outlet Port
  ,                                       !- Target Object
  2;                                      !- Inlet Port

OS:Space,
  {75111445-9889-4e0e-bf8b-33e4ad0474cb}, !- Handle
  Office1_Flr_5,                          !- Name