
OS:Version,
  {b139254e-13a6-4c20-91d6-aaa323c40293}, !- Handle
  1.14.0;                                 !- Version Identifier

OS:Timestep,
  {b0fa043b-3e91-4705-b798-a26bbea47620}, !- Handle
  6;                                      !- Number of Timesteps per Hour

OS:Surface,
  {536547a8-0ff7-41c8-95f3-7331a5af3d86}, !- Handle
  ER_Exam3_Mult4_Flr_1_Wall_East,         !- Name
  Wall,                                   !- Surface Type
  ,                                       !- Construction Name
  {16b36206-de28-4cc5-a003-3fd3fdc223f7}, !- Space Name
  Outdoors,                               !- Outside Boundary Condition
  ,                                       !- Outside Boundary Condition Object
  SunExposed,                             !- Sun Exposure
  WindExposed,                            !- Wind Exposure
  ,                                       !- View Factor to Ground
  ,                                       !- Number of Vertices
  70.104, 4.572, 4.2683,                  !- X,Y,Z Vertex 1 {m}
  70.104, 4.572, 0,                       !- X,Y,Z Vertex 2 {m}
  70.104, 9.144, 0,                       !- X,Y,Z Vertex 3 {m}
  70.104, 9.144, 4.2683;                  !- X,Y,Z Vertex 4 {m}

OS:Connection,
  {ba23bdb8-dd86-42cd-9a6b-dd4b0ce3e554}, !- Handle
  {b6906a75-2aea-4a4e-946e-efe87c3c80f2}, !- Name
  ,                                       !- Source Object
  11,                                     !- Outlet Port
  ,                                       !- Target Object
  2;                                      !- Inlet Port

OS:Space,
  {16b36206-de28-4cc5-a003-3fd3fdc223f7}, !- Handle
  ER_Exam3_Mult4_Flr_1,                   !- Name
  {1f3cb8fc-f2fc-49d8-8fa2-4fe55500fa7b}, !- Space Type Name
  ,                                       !- Default Construction Set Name
  ,                                       !- Default Schedule Set Name
  0,                                      !- Direction of Relative North {deg}
  0,                                      !- X Origin {m}
  0,                                      !- Y Origin {m}
  0,                                      !- Z Origin {m}
  {1d4e5ca5-5ec1-40c1-9a54-d9dc0574ff38}, !- Building Story Name
  {78a9bbf5-2cca-481f-a1d3-1455505e4dec}, !- Thermal Zone Name
  Yes;                                    !- Part of Total Floor Area

OS:Surface,
  {b01f4393-b28d-4f5f-abf9-74b558947393}, !- Handle
  Corridor_NW_Flr_4_Wall_3_East,          !- Name
  Wall,                                   !- Surface Type
  {72766518-8d2d-4758-b054-bdd3fd5c5ed5}, !- Construction Name
  {4b0352d7-5b15-44a5-874c-f4c860e83600}, !- Space Name
  Adiabatic,                              !- Outside Boundary Condition
  ,                                       !- Outside Boundary Condition Object
  NoSun,                                  !- Sun Exposure
  NoWind,                                 !- Wind Exposure
  ,                                       !- View Factor to Ground
  ,                                       !- Number of Vertices
  65.532, 42.672, 17.0732,                !- X,Y,Z Vertex 1 {m}
  65.532, 42.672, 12.8049,                !- X,Y,Z Vertex 2 {m}
  65.532, 48.768, 12.8049,                !- X,Y,Z Vertex 3 {m}
  65.532, 48.768, 17.0732;                !- X,Y,Z Vertex 4 {m}

OS:Connection,
  {f6b1f296-5c01-46aa-93fd-ad308d3066dc}, !- Handle
  {0f06dee0-bbf1-49a6-bc4d-b1906fe47382}, !- Name
  ,                                       !- Source Object
  11,                                     !- Outlet Port
  ,                                       !- Target Object
  2;                                      !- Inlet Port

OS:Space,
  {4b0352d7-5b15-44a5-874c-f4c860e83600}, !- Handle
  Corridor_NW_Flr_4,                      !- Name
  {f6dc07fc-b994-4f27-b099-0760c968a81e}, !- Space Type Name
  ,                                       !- Default Construction Set Name
  ,                                       !- Default Schedule Set Name
  0,                                      !- Direction of Relative North {deg}
  0,                                      !- X Origin {m}
  0,                                      !- Y Origin {m}
  0,                                      !- Z Origin {m}
  {204f7d3f-bc86-48fd-b546-fe7e1d0544ba}, !- Building Story Name
  {230795a0-a6fd-4319-95e6-a48024117bbf}, !- Thermal Zone Name
  Yes;                                    !- Part of Total Floor Area

OS:Surface,
  {afe5b58f-e6c5-4880-9755-cff32930c37a}, !- Handle
  IC_PatRoom2_Flr_2_Wall_West,            !- Name
  Wall,                                   !- Surface Type
  ,                                       !- Construction Name
  {8ec78f13-57f2-4f0e-9746-f05360546e20}, !- Space Name
  Outdoors,                               !- Outside Boundary Condition
  ,                                       !- Outside Boundary Condition Object
  SunExposed,                             !- Sun Exposure
  WindExposed,                            !- Wind Exposure
  ,                                       !- View Factor to Ground
  ,                                       !- Number of Vertices
  0, 53.34, 8.5366,                       !- X,Y,Z Vertex 1 {m}
  0, 53.34, 4.2683,                       !- X,Y,Z Vertex 2 {m}
  0, 48.768, 4.2683,                      !- X,Y,Z Vertex 3 {m}
  0, 48.768, 8.5366;                      !- X,Y,Z Vertex 4 {m}

OS:Connection,
  {2e9eafa7-6887-4f63-8edd-6b7bf9cfad9b}, !- Handle
  {0fc0c69d-c6ec-45c8-9e3f-d9a75d16a6c0}, !- Name
  ,                                       !- Source Object
  11,                                     !- Outlet Port
  ,                                       !- Target Object
  2;                                      !- Inlet Port

OS:Space,
  {8ec78f13-57f2-4f0e-9746-f05360546e20}, !- Handle
  IC_PatRoom2_Flr_2,                      !- Name
  {e7330895-bdf0-4464-b748-09950cce14e1}, !- Space Type Name
  ,                                       !- Default Construction Set Name
  ,                                       !- Default Schedule Set Name
  0,                                      !- Direction of Relative North {deg}
  0,                                      !- X Origin {m}
  0,                                      !- Y Origin {m}
  0,                                      !- Z Origin {m}
  {60a51eb2-92de-46d5-abab-60f736d58d44}, !- Building Story Name
  {29854eca-2b5d-4506-b9d5-3a7c99169cee}, !- Thermal Zone Name
  Yes;                                    !- Part of Total Floor Area

OS:Connection,
  {ca5e662f-0c0b-485b-8519-f073cfdc0a69}, !- Handle
  {8ba365ca-2524-4283-83cb-499795b61ad4}, !- Name
  ,                                       !- Source Object
  11,                                     !- Outlet Port
  ,                                       !- Target Object
  2;                                      !- Inlet Port

OS:Space,
  {e141e567-31a6-4982-92aa-a4d8a75baef0}, !- Handle
  ER_Trauma1_Flr_1,                       !- Name
  {afdd9c3c-324b-43f2-94d9-37bc0f24921c}, !- Space Type Name
  ,                                       !- Default Construction Set Name
  ,                                       !- Default Schedule Set Name
  0,                                      !- Direction of Relative North {deg}
  0,                                      !- X Origin {m}
  0,                                      !- Y Origin {m}
  0,                                      !- Z Origin {m}
  {1d4e5ca5-5ec1-40c1-9a54-d9dc0574ff38}, !- Building Story Name
  {72284824-071c-4591-9957-3a0c45dcdc92}, !- Thermal Zone Name
  Yes;                                    !- Part of Total Floor Area

OS:Surface,
  {50a9c7ad-5570-4cf0-be6a-bfaa0e539914}, !- Handle
  Corridor_Flr_1_Wall_South,              !- Name
  Wall,                                   !- Surface Type
  ,                                       !- Construction Name
  {1168441b-e4e6-4d44-a00f-18b75cc06a24}, !- Space Name
  Outdoors,                               !- Outside Boundary Condition
  ,                                       !- Outside Boundary Condition Object
  SunExposed,                             !- Sun Exposure
  WindExposed,                            !- Wind Exposure
  ,                                       !- View Factor to Ground
  ,                                       !- Number of Vertices
  28.956, 0, 4.2683,                      !- X,Y,Z Vertex 1 {m}
  28.956, 0, 0,                           !- X,Y,Z Vertex 2 {m}
  39.624, 0, 0,                           !- X,Y,Z Vertex 3 {m}
  39.624, 0, 4.2683;                      !- X,Y,Z Vertex 4 {m}

OS:Connection,
  {8680cc80-7a6d-4b3a-a4f3-35f5af7bc22f}, !- Handle
  {54e063c5-536e-4b32-8e44-bb3c08f8bfda}, !- Name
  ,                                       !- Source Object
  11,                                     !- Outlet Port
  ,                                       !- Target Object
  2;                                      !- Inlet Port

OS:Space,
  {1168441b-e4e6-4d44-a00f-18b75cc06a24}, !- Handle
  Corridor_Flr_1,                         !- Name
  {f6dc07fc-b994-4f27-b099-0760c968a81e}, !- Space Type Name
  ,                                       !- Default Construction Set Name
  ,                                       !- Default Schedule Set Name
  0,                                      !- Direction of Relative North {deg}
  0,                                      !- X Origin {m}
  0,                                      !- Y Origin {m}
  0,                                      !- Z Origin {m}
  {1d4e5ca5-5ec1-40c1-9a54-d9dc0574ff38}, !- Building Story Name
  {75172d3e-43f6-4a87-8c96-4d030159c8c8}, !- Thermal Zone Name
  Yes;                                    !- Part of Total Floor Area

OS:SubSurface,
  {d28f3ce6-4398-4a00-8d74-b7207b6c0309}, !- Handle
  ER_NurseStn_Lobby_Flr_1_Wall_1_East_Window, !- Name
  FixedWindow,                            !- Sub Surface Type
  ,                                       !- Construction Name
  {8d178f1e-a3c7-42e4-b5f7-438716cdfe5c}, !- Surface Name
  ,                                       !- Outside Boundary Condition Object
  ,                                       !- View Factor to Ground
  ,                                       !- Shading Control Name
  ,                                       !- Frame and Divider Name
  1,                                      !- Multiplier
  ,                                       !- Number of Vertices
  70.104, 14.202, 2.134,                  !- X,Y,Z Vertex 1 {m}
  70.104, 14.202, 0.914,                  !- X,Y,Z Vertex 2 {m}
  70.104, 39.138, 0.914,                  !- X,Y,Z Vertex 3 {m}
  70.104, 39.138, 2.134;                  !- X,Y,Z Vertex 4 {m}

OS:Surface,
  {8d178f1e-a3c7-42e4-b5f7-438716cdfe5c}, !- Handle
  ER_NurseStn_Lobby_Flr_1_Wall_1_East,    !- Name
  Wall,                                   !- Surface Type
  ,                                       !- Construction Name
  {e421471b-c574-4e8a-b7a8-245348dd3775}, !- Space Name
  Outdoors,                               !- Outside Boundary Condition
  ,                                       !- Outside Boundary Condition Object
  SunExposed,                             !- Sun Exposure
  WindExposed,                            !- Wind Exposure
  ,                                       !- View Factor to Ground
  ,                                       !- Number of Vertices
  70.104, 13.716, 4.2683,                 !- X,Y,Z Vertex 1 {m}
  70.104, 13.716, 0,                      !- X,Y,Z Vertex 2 {m}
  70.104, 39.624, 0,                      !- X,Y,Z Vertex 3 {m}
  70.104, 39.624, 4.2683;                 !- X,Y,Z Vertex 4 {m}

OS:Connection,
  {3e6bf527-15bc-43ff-ac95-3592754417e1}, !- Handle
  {f3fd4a56-f1ef-4249-847a-c606fafa6704}, !- Name
  ,                                       !- Source Object
  11,                                     !- Outlet Port
  ,                                       !- Target Object
  2;                                      !- Inlet Port

OS:Space,
  {e421471b-c574-4e8a-b7a8-245348dd3775}, !- Handle
  ER_NurseStn_Lobby_Flr_1,                !- Name
  {bad7e795-7913-4caf-9c91-be21e3ccd0a0}, !- Space Type Name
  ,                                       !- Default Construction Set Name
  ,                                       !- Default Schedule Set Name
  0,                                      !- Direction of Relative North {deg}
  0,                                      !- X Origin {m}
  0,                                      !- Y Origin {m}
  0,                                      !- Z Origin {m}
  {1d4e5ca5-5ec1-40c1-9a54-d9dc0574ff38}, !- Building Story Name
  {0f0ea404-d7bc-49fc-bee4-fe6bc55f0451}, !- Thermal Zone Name
  Yes;                                    !- Part of Total Floor Area

OS:Surface,
  {fa9db250-4eaa-4e84-a7c0-b8aee3dc0215}, !- Handle
  ICU_Flr_2_Wall_West,                    !- Name
  Wall,                                   !- Surface Type
  ,                                       !- Construction Name
  {e8233850-2c26-457b-b983-e0a87242a5d7}, !- Space Name
  Outdoors,                               !- Outside Boundary Condition
  ,                                       !- Outside Boundary Condition Object
  SunExposed,                             !- Sun Exposure
  WindExposed,                            !- Wind Exposure
  ,                                       !- View Factor to Ground
  ,                                       !- Number of Vertices
  0, 21.3415, 8.5366,                     !- X,Y,Z Vertex 1 {m}
  0, 21.3415, 4.2683,                     !- X,Y,Z Vertex 2 {m}
  0, 0, 4.2683,                           !- X,Y,Z Vertex 3 {m}
  0, 0, 8.5366;                           !- X,Y,Z Vertex 4 {m}

OS:Connection,
  {0b860b21-947f-4260-8066-dbb37a697374}, !- Handle
  {14a9a1c7-aa2d-48d6-9cdd-08371ff348ff}, !- Name
  ,                                       !- Source Object
  11,                                     !- Outlet Port
  ,                                       !- Target Object
  2;                                      !- Inlet Port

OS:Space,
  {e8233850-2c26-457b-b983-e0a87242a5d7}, !- Handle
  ICU_Flr_2,                              !- Name
  {553a10b2-df70-4dcd-ab0e-373ab98f4435}, !- Space Type Name
  ,                                       !- Default Construction Set Name
  ,                                       !- Default Schedule Set Name
  0,                                      !- Direction of Relative North {deg}
  0,                                      !- X Origin {m}
  0,                                      !- Y Origin {m}
  0,                                      !- Z Origin {m}
  {60a51eb2-92de-46d5-abab-60f736d58d44}, !- Building Story Name
  {cdbf5838-312e-4d59-8f65-daff0c9b1d15}, !- Thermal Zone Name
  Yes;                                    !- Part of Total Floor Area

OS:Surface,
  {7ef813b6-eb2c-42a4-a286-6d04e94df410}, !- Handle
  NurseStn_Lobby_Flr_4_Wall_3_West,       !- Name
  Wall,                                   !- Surface Type
  ,                                       !- Construction Name
  {31390124-80ad-4222-b08a-01be2ad61163}, !- Space Name
  Surface,                                !- Outside Boundary Condition
  {50cdc8e0-460e-4ed9-98f3-efb298b147f7}, !- Outside Boundary Condition Object
  NoSun,                                  !- Sun Exposure
  NoWind,                                 !- Wind Exposure
  ,                                       !- View Factor to Ground
  ,                                       !- Number of Vertices
  28.956, 19.812, 17.0732,                !- X,Y,Z Vertex 1 {m}
  28.956, 19.812, 12.8049,                !- X,Y,Z Vertex 2 {m}
  28.956, 10.668, 12.8049,                !- X,Y,Z Vertex 3 {m}
  28.956, 10.668, 17.0732;                !- X,Y,Z Vertex 4 {m}

OS:Connection,
  {7f66ef4c-e88a-4469-84ac-d2c872af167e}, !- Handle
  {77f87f14-6b1e-4f82-9bcc-4ac2a6aa9bac}, !- Name
  ,                                       !- Source Object
  11,                                     !- Outlet Port
  ,                                       !- Target Object
  2;                                      !- Inlet Port

OS:Space,
  {31390124-80ad-4222-b08a-01be2ad61163}, !- Handle
  NurseStn_Lobby_Flr_4,                   !- Name
  {13b2d294-d6ca-489f-ace0-80519459ca26}, !- Space Type Name
  ,                                       !- Default Construction Set Name
  ,                                       !- Default Schedule Set Name
  0,                                      !- Direction of Relative North {deg}
  0,                                      !- X Origin {m}
  0,                                      !- Y Origin {m}
  0,                                      !- Z Origin {m}
  {204f7d3f-bc86-48fd-b546-fe7e1d0544ba}, !- Building Story Name
  {07ef4fb3-cc12-48fb-b6f2-cb34c92e1129}, !- Thermal Zone Name
  Yes;                                    !- Part of Total Floor Area

OS:Surface,
  {1cce1493-7595-436a-bae6-5f99284a3768}, !- Handle
  OR_NurseStn_Lobby_Flr_2_Wall_2_North,   !- Name
  Wall,                                   !- Surface Type
  ,                                       !- Construction Name
  {5fa7a66e-65f8-47fe-850f-4aff5015d62b}, !- Space Name
  Surface,                                !- Outside Boundary Condition
  {be5279e4-d34b-40c7-b768-983039f55c58}, !- Outside Boundary Condition Object
  NoSun,                                  !- Sun Exposure
  NoWind,                                 !- Wind Exposure
  ,                                       !- View Factor to Ground
  ,                                       !- Number of Vertices
  48.768, 22.86, 8.5366,                  !- X,Y,Z Vertex 1 {m}
  48.768, 22.86, 4.2683,                  !- X,Y,Z Vertex 2 {m}
  39.624, 22.86, 4.2683,                  !- X,Y,Z Vertex 3 {m}
  39.624, 22.86, 8.5366;                  !- X,Y,Z Vertex 4 {m}

OS:Connection,
  {256b3194-0009-4522-a1b2-be94e5745a1b}, !- Handle
  {dfc1c96b-4e39-4d92-a951-a7dcb57f4395}, !- Name
  ,                                       !- Source Object
  11,                                     !- Outlet Port
  ,                                       !- Target Object
  2;                                      !- Inlet Port

OS:Space,
  {5fa7a66e-65f8-47fe-850f-4aff5015d62b}, !- Handle
  OR_NurseStn_Lobby_Flr_2,                !- Name
  {13b2d294-d6ca-489f-ace0-80519459ca26}, !- Space Type Name
  ,                                       !- Default Construction Set Name
  ,                                       !- Default Schedule Set Name
  0,                                      !- Direction of Relative North {deg}
  0,                                      !- X Origin {m}
  0,                                      !- Y Origin {m}
  0,                                      !- Z Origin {m}
  {60a51eb2-92de-46d5-abab-60f736d58d44}, !- Building Story Name
  {9677c63b-0977-44b9-9f9e-3519ae6b6471}, !- Thermal Zone Name
  Yes;                                    !- Part of Total Floor Area

OS:Surface,
  {75b7e856-5aee-441b-bd17-0a80eceb799b}, !- Handle
  PatRoom5_Mult10_Flr_3_Wall_West,        !- Name
  Wall,                                   !- Surface Type
  ,                                       !- Construction Name
  {2294b9a3-413c-42bf-8af1-ea3aba2f3837}, !- Space Name
  Surface,                                !- Outside Boundary Condition
  {aa0ec6ad-6024-410f-bd62-3b9e8d9f8f58}, !- Outside Boundary Condition Object
  NoSun,                                  !- Sun Exposure
  NoWind,                                 !- Wind Exposure
  ,                                       !- View Factor to Ground
  ,                                       !- Number of Vertices
  39.624, 53.34, 12.8049,                 !- X,Y,Z Vertex 1 {m}
  39.624, 53.34, 8.5366,                  !- X,Y,Z Vertex 2 {m}
  39.624, 48.768, 8.5366,                 !- X,Y,Z Vertex 3 {m}
  39.624, 48.768, 12.8049;                !- X,Y,Z Vertex 4 {m}

OS:Connection,
  {fecb179e-a394-4c09-9704-ae0179976cf6}, !- Handle
  {70be1f94-2d66-4632-8a57-6c1c9da9c155}, !- Name
  ,                                       !- Source Object
  11,                                     !- Outlet Port
  ,                                       !- Target Object
  2;                                      !- Inlet Port

OS:Space,
  {2294b9a3-413c-42bf-8af1-ea3aba2f3837}, !- Handle
  PatRoom5_Mult10_Flr_3,                  !- Name
  {9e67f742-b85f-4c2a-a448-dfab773542a7}, !- Space Type Name
  ,                                       !- Default Construction Set Name
  ,                                       !- Default Schedule Set Name
  0,                                      !- Direction of Relative North {deg}
  0,                                      !- X Origin {m}
  0,                                      !- Y Origin {m}
  0,                                      !- Z Origin {m}
  {2aad063a-5ccb-4fda-ba09-820b3f83b9ad}, !- Building Story Name
  {8ebde74e-f8f3-4033-bb31-ed3b5335dc3f}, !- Thermal Zone Name
  Yes;                                    !- Part of Total Floor Area

OS:Surface,
  {944fcf1d-2911-419c-a398-62bbc2143ab9}, !- Handle
  Corridor_Flr_2_Wall_South,              !- Name
  Wall,                                   !- Surface Type
  ,                                       !- Construction Name
  {2870f103-d956-457d-b911-977241d8c35a}, !- Space Name
  Outdoors,                               !- Outside Boundary Condition
  ,                                       !- Outside Boundary Condition Object
  SunExposed,                             !- Sun Exposure
  WindExposed,                            !- Wind Exposure
  ,                                       !- View Factor to Ground
  ,                                       !- Number of Vertices
  28.956, 0, 8.5366,                      !- X,Y,Z Vertex 1 {m}
  28.956, 0, 4.2683,                      !- X,Y,Z Vertex 2 {m}
  39.624, 0, 4.2683,                      !- X,Y,Z Vertex 3 {m}
  39.624, 0, 8.5366;                      !- X,Y,Z Vertex 4 {m}

OS:Connection,
  {7aae01a8-0538-4b85-9c71-ef4033f04c3b}, !- Handle
  {aae603d0-da83-4685-8a3e-75f93df9dac2}, !- Name
  ,                                       !- Source Object
  11,                                     !- Outlet Port
  ,                                       !- Target Object
  2;                                      !- Inlet Port

OS:Space,
  {2870f103-d956-457d-b911-977241d8c35a}, !- Handle
  Corridor_Flr_2,                         !- Name
  {f6dc07fc-b994-4f27-b099-0760c968a81e}, !- Space Type Name
  ,                                       !- Default Construction Set Name
  ,                                       !- Default Schedule Set Name
  0,                                      !- Direction of Relative North {deg}
  0,                                      !- X Origin {m}
  0,                                      !- Y Origin {m}
  0,                                      !- Z Origin {m}
  {60a51eb2-92de-46d5-abab-60f736d58d44}, !- Building Story Name
  {856c61aa-9ae2-4fab-95eb-592bf6831f09}, !- Thermal Zone Name
  Yes;                                    !- Part of Total Floor Area

OS:Surface,
  {a6a8afc1-01e4-43aa-800d-8230627da69a}, !- Handle
  ER_Trauma2_Flr_1_Floor,                 !- Name
  Floor,                                  !- Surface Type
  {bb9e03bb-4366-4874-ada4-23012e6207a4}, !- Construction Name
  {dd7a92d0-924e-4003-b630-567ab7ab69ab}, !- Space Name
  Adiabatic,                              !- Outside Boundary Condition
  ,                                       !- Outside Boundary Condition Object
  NoSun,                                  !- Sun Exposure
  NoWind,                                 !- Wind Exposure
  ,                                       !- View Factor to Ground
  ,                                       !- Number of Vertices
  70.104, 53.34, 0,                       !- X,Y,Z Vertex 1 {m}
  70.104, 48.768, 0,                      !- X,Y,Z Vertex 2 {m}
  64.008, 48.768, 0,                      !- X,Y,Z Vertex 3 {m}
  64.008, 53.34, 0;                       !- X,Y,Z Vertex 4 {m}

OS:Connection,
  {ae697a91-2782-4652-92e9-f74f9cc63efc}, !- Handle
  {db697439-3010-4e0c-804b-51670722a262}, !- Name
  ,                                       !- Source Object
  11,                                     !- Outlet Port
  ,                                       !- Target Object
  2;                                      !- Inlet Port

OS:Space,
  {dd7a92d0-924e-4003-b630-567ab7ab69ab}, !- Handle
  ER_Trauma2_Flr_1,                       !- Name
  {afdd9c3c-324b-43f2-94d9-37bc0f24921c}, !- Space Type Name
  ,                                       !- Default Construction Set Name
  ,                                       !- Default Schedule Set Name
  0,                                      !- Direction of Relative North {deg}
  0,                                      !- X Origin {m}
  0,                                      !- Y Origin {m}
  0,                                      !- Z Origin {m}
  {1d4e5ca5-5ec1-40c1-9a54-d9dc0574ff38}, !- Building Story Name
  {4c8f7d8f-efb7-4d9e-84d1-2111200f5cab}, !- Thermal Zone Name
  Yes;                                    !- Part of Total Floor Area

OS:Surface,
  {cc584830-a067-4325-91bc-26106a56b2c5}, !- Handle
  Corridor_NW_Flr_4_Wall_5_South,         !- Name
  Wall,                                   !- Surface Type
  ,                                       !- Construction Name
  {4b0352d7-5b15-44a5-874c-f4c860e83600}, !- Space Name
  Surface,                                !- Outside Boundary Condition
  {bb22825c-3e5e-4013-a58b-184f0f9bd61e}, !- Outside Boundary Condition Object
  NoSun,                                  !- Sun Exposure
  NoWind,                                 !- Wind Exposure
  ,                                       !- View Factor to Ground
  ,                                       !- Number of Vertices
  4.572, 10.668, 17.0732,                 !- X,Y,Z Vertex 1 {m}
  4.572, 10.668, 12.8049,                 !- X,Y,Z Vertex 2 {m}
  9.144, 10.668, 12.8049,                 !- X,Y,Z Vertex 3 {m}
  9.144, 10.668, 17.0732;                 !- X,Y,Z Vertex 4 {m}

OS:Surface,
  {593ca8ad-9d9c-40de-bee9-c0a04136993f}, !- Handle
  PatRoom3_Mult10_Flr_4_Wall_North,       !- Name
  Wall,                                   !- Surface Type
  {72766518-8d2d-4758-b054-bdd3fd5c5ed5}, !- Construction Name
  {668fd0fa-a605-4127-8009-961514db81c7}, !- Space Name
  Adiabatic,                              !- Outside Boundary Condition
  ,                                       !- Outside Boundary Condition Object
  NoSun,                                  !- Sun Exposure
  NoWind,                                 !- Wind Exposure
  ,                                       !- View Factor to Ground
  ,                                       !- Number of Vertices
  70.104, 8.992, 17.0732,                 !- X,Y,Z Vertex 1 {m}
  70.104, 8.992, 12.8049,                 !- X,Y,Z Vertex 2 {m}
  65.532, 8.992, 12.8049,                 !- X,Y,Z Vertex 3 {m}
  65.532, 8.992, 17.0732;                 !- X,Y,Z Vertex 4 {m}

OS:Connection,
  {3feffa74-a211-4bc1-9d09-1c06287672a6}, !- Handle
  {bf5ceb8f-ddec-4805-a048-1cc94d656284}, !- Name
  ,                                       !- Source Object
  11,                                     !- Outlet Port
  ,                                       !- Target Object
  2;                                      !- Inlet Port

OS:Space,
  {668fd0fa-a605-4127-8009-961514db81c7}, !- Handle
  PatRoom3_Mult10_Flr_4,                  !- Name
  {9e67f742-b85f-4c2a-a448-dfab773542a7}, !- Space Type Name
  ,                                       !- Default Construction Set Name
  ,                                       !- Default Schedule Set Name
  0,                                      !- Direction of Relative North {deg}
  0,                                      !- X Origin {m}
  0,                                      !- Y Origin {m}
  0,                                      !- Z Origin {m}
  {204f7d3f-bc86-48fd-b546-fe7e1d0544ba}, !- Building Story Name
  {68b6a96f-8923-4b08-9e00-ee5f432f3e83}, !- Thermal Zone Name
  Yes;                                    !- Part of Total Floor Area

OS:Connection,
  {f671ed73-72e9-44cd-8c37-20c987b58e51}, !- Handle
  {cf88a21f-aca8-46d4-9b97-f21d2b5f3d69}, !- Name
  ,                                       !- Source Object
  11,                                     !- Outlet Port
  ,                                       !- Target Object
  2;                                      !- Inlet Port

OS:Space,
  {f4b6e0eb-817b-405c-98f0-c425865851fb}, !- Handle
  NurseStn_Lobby_Flr_3,                   !- Name
  {13b2d294-d6ca-489f-ace0-80519459ca26}, !- Space Type Name
  ,                                       !- Default Construction Set Name
  ,                                       !- Default Schedule Set Name
  0,                                      !- Direction of Relative North {deg}
  0,                                      !- X Origin {m}
  0,                                      !- Y Origin {m}
  0,                                      !- Z Origin {m}
  {2aad063a-5ccb-4fda-ba09-820b3f83b9ad}, !- Building Story Name
  {4968afb2-c714-4175-9778-92c18244eba4}, !- Thermal Zone Name
  Yes;                                    !- Part of Total Floor Area

OS:Connection,
  {26b0b67a-236a-4645-98e8-76128cca8acb}, !- Handle
  {fc646a4d-b9f3-45cd-bbd2-c4f8ec5db979}, !- Name
  ,                                       !- Source Object
  11,                                     !- Outlet Port
  ,                                       !- Target Object
  2;                                      !- Inlet Port

OS:Space,
  {75111445-9889-4e0e-bf8b-33e4ad0474cb}, !- Handle
  Office1_Flr_5,                          !- Name
  {18ecc874-5188-4f2c-b1b3-e6998c7e0395}, !- Space Type Name
  ,                                       !- Default Construction Set Name
  ,                                       !- Default Schedule Set Name
  0,                                      !- Direction of Relative North {deg}