
OS:Version,
  {9ce8a6f2-dc40-416b-9fef-d78a27a5aaf0}, !- Handle
  1.14.0;                                 !- Version Identifier

OS:Timestep,
  {b0fa043b-3e91-4705-b798-a26bbea47620}, !- Handle
  6;                                      !- Number of Timesteps per Hour

OS:Surface,
  {536547a8-0ff7-41c8-95f3-7331a5af3d86}, !- Handle
  ER_Exam3_Mult4_Flr_1_Wall_East,         !- Name
  Wall,                                   !- Surface Type
  ,                                       !- Construction Name
  {16b36206-de28-4cc5-a003-3fd3fdc223f7}, !- Space Name
  Outdoors,                               !- Outside Boundary Condition
  ,                                       !- Outside Boundary Condition Object
  SunExposed,                             !- Sun Exposure
  WindExposed,                            !- Wind Exposure
  ,                                       !- View Factor to Ground
  ,                                       !- Number of Vertices
  70.104, 4.572, 4.2683,                  !- X,Y,Z Vertex 1 {m}
  70.104, 4.572, 0,                       !- X,Y,Z Vertex 2 {m}
  70.104, 9.144, 0,                       !- X,Y,Z Vertex 3 {m}
  70.104, 9.144, 4.2683;                  !- X,Y,Z Vertex 4 {m}

OS:Connection,
  {ba23bdb8-dd86-42cd-9a6b-dd4b0ce3e554}, !- Handle
  {b6906a75-2aea-4a4e-946e-efe87c3c80f2}, !- Name
  ,                                       !- Source Object
  11,                                     !- Outlet Port
  ,                                       !- Target Object
  2;                                      !- Inlet Port

OS:Space,
  {16b36206-de28-4cc5-a003-3fd3fdc223f7}, !- Handle
  ER_Exam3_Mult4_Flr_1,                   !- Name
  {9fbd9f6d-c9d0-451b-9d0a-318760bf141a}, !- Space Type Name
  ,                                       !- Default Construction Set Name
  ,                                       !- Default Schedule Set Name
  0,                                      !- Direction of Relative North {deg}
  0,                                      !- X Origin {m}
  0,                                      !- Y Origin {m}
  0,                                      !- Z Origin {m}
  {38c49ed2-15e1-47aa-b4c7-f193e4c7e9a2}, !- Building Story Name
  {3c6da3ee-244f-4163-8961-105fc736fd00}, !- Thermal Zone Name
  Yes;                                    !- Part of Total Floor Area

OS:Surface,
  {b01f4393-b28d-4f5f-abf9-74b558947393}, !- Handle
  Corridor_NW_Flr_4_Wall_3_East,          !- Name
  Wall,                                   !- Surface Type
  {919e6882-1dbf-4644-920f-77b4dfe0f1d7}, !- Construction Name
  {4b0352d7-5b15-44a5-874c-f4c860e83600}, !- Space Name
  Adiabatic,                              !- Outside Boundary Condition
  ,                                       !- Outside Boundary Condition Object
  NoSun,                                  !- Sun Exposure
  NoWind,                                 !- Wind Exposure
  ,                                       !- View Factor to Ground
  ,                                       !- Number of Vertices
  65.532, 42.672, 17.0732,                !- X,Y,Z Vertex 1 {m}
  65.532, 42.672, 12.8049,                !- X,Y,Z Vertex 2 {m}
  65.532, 48.768, 12.8049,                !- X,Y,Z Vertex 3 {m}
  65.532, 48.768, 17.0732;                !- X,Y,Z Vertex 4 {m}

OS:Connection,
  {f6b1f296-5c01-46aa-93fd-ad308d3066dc}, !- Handle
  {0f06dee0-bbf1-49a6-bc4d-b1906fe47382}, !- Name
  ,                                       !- Source Object
  11,                                     !- Outlet Port
  ,                                       !- Target Object
  2;                                      !- Inlet Port

OS:Space,
  {4b0352d7-5b15-44a5-874c-f4c860e83600}, !- Handle
  Corridor_NW_Flr_4,                      !- Name
  {850045c5-8c44-4cc0-b392-53d01a127b7d}, !- Space Type Name
  ,                                       !- Default Construction Set Name
  ,                                       !- Default Schedule Set Name
  0,                                      !- Direction of Relative North {deg}
  0,                                      !- X Origin {m}
  0,                                      !- Y Origin {m}
  0,                                      !- Z Origin {m}
  {1aafc060-b395-42bb-ac42-018f32537653}, !- Building Story Name
  {e2a898f4-d278-4970-b157-468647ce1a72}, !- Thermal Zone Name
  Yes;                                    !- Part of Total Floor Area

OS:Surface,
  {afe5b58f-e6c5-4880-9755-cff32930c37a}, !- Handle
  IC_PatRoom2_Flr_2_Wall_West,            !- Name
  Wall,                                   !- Surface Type
  ,                                       !- Construction Name
  {8ec78f13-57f2-4f0e-9746-f05360546e20}, !- Space Name
  Outdoors,                               !- Outside Boundary Condition
  ,                                       !- Outside Boundary Condition Object
  SunExposed,                             !- Sun Exposure
  WindExposed,                            !- Wind Exposure
  ,                                       !- View Factor to Ground
  ,                                       !- Number of Vertices
  0, 53.34, 8.5366,                       !- X,Y,Z Vertex 1 {m}
  0, 53.34, 4.2683,                       !- X,Y,Z Vertex 2 {m}
  0, 48.768, 4.2683,                      !- X,Y,Z Vertex 3 {m}
  0, 48.768, 8.5366;                      !- X,Y,Z Vertex 4 {m}

OS:Connection,
  {2e9eafa7-6887-4f63-8edd-6b7bf9cfad9b}, !- Handle
  {0fc0c69d-c6ec-45c8-9e3f-d9a75d16a6c0}, !- Name
  ,                                       !- Source Object
  11,                                     !- Outlet Port
  ,                                       !- Target Object
  2;                                      !- Inlet Port

OS:Space,
  {8ec78f13-57f2-4f0e-9746-f05360546e20}, !- Handle
  IC_PatRoom2_Flr_2,                      !- Name
  {15932219-4420-4309-af6d-bb879a0e38d2}, !- Space Type Name
  ,                                       !- Default Construction Set Name
  ,                                       !- Default Schedule Set Name
  0,                                      !- Direction of Relative North {deg}
  0,                                      !- X Origin {m}
  0,                                      !- Y Origin {m}
  0,                                      !- Z Origin {m}
  {1e3b9437-af28-4330-af11-f2175f81b389}, !- Building Story Name
  {35ad932e-8a50-4680-9000-7f5deeface14}, !- Thermal Zone Name
  Yes;                                    !- Part of Total Floor Area

OS:Connection,
  {ca5e662f-0c0b-485b-8519-f073cfdc0a69}, !- Handle
  {8ba365ca-2524-4283-83cb-499795b61ad4}, !- Name
  ,                                       !- Source Object
  11,                                     !- Outlet Port
  ,                                       !- Target Object
  2;                                      !- Inlet Port

OS:Space,
  {e141e567-31a6-4982-92aa-a4d8a75baef0}, !- Handle
  ER_Trauma1_Flr_1,                       !- Name
  {cee124a4-d377-48ea-b5dc-ee8ddeb071d4}, !- Space Type Name
  ,                                       !- Default Construction Set Name
  ,                                       !- Default Schedule Set Name
  0,                                      !- Direction of Relative North {deg}
  0,                                      !- X Origin {m}
  0,                                      !- Y Origin {m}
  0,                                      !- Z Origin {m}
  {38c49ed2-15e1-47aa-b4c7-f193e4c7e9a2}, !- Building Story Name
  {5c6484f2-eb55-44b1-aa38-f7d5377112cb}, !- Thermal Zone Name
  Yes;                                    !- Part of Total Floor Area

OS:Surface,
  {50a9c7ad-5570-4cf0-be6a-bfaa0e539914}, !- Handle
  Corridor_Flr_1_Wall_South,              !- Name
  Wall,                                   !- Surface Type
  ,                                       !- Construction Name
  {1168441b-e4e6-4d44-a00f-18b75cc06a24}, !- Space Name
  Outdoors,                               !- Outside Boundary Condition
  ,                                       !- Outside Boundary Condition Object
  SunExposed,                             !- Sun Exposure
  WindExposed,                            !- Wind Exposure
  ,                                       !- View Factor to Ground
  ,                                       !- Number of Vertices
  28.956, 0, 4.2683,                      !- X,Y,Z Vertex 1 {m}
  28.956, 0, 0,                           !- X,Y,Z Vertex 2 {m}
  39.624, 0, 0,                           !- X,Y,Z Vertex 3 {m}
  39.624, 0, 4.2683;                      !- X,Y,Z Vertex 4 {m}

OS:Connection,
  {8680cc80-7a6d-4b3a-a4f3-35f5af7bc22f}, !- Handle
  {54e063c5-536e-4b32-8e44-bb3c08f8bfda}, !- Name
  ,                                       !- Source Object
  11,                                     !- Outlet Port
  ,                                       !- Target Object
  2;                                      !- Inlet Port

OS:Space,
  {1168441b-e4e6-4d44-a00f-18b75cc06a24}, !- Handle
  Corridor_Flr_1,                         !- Name
  {850045c5-8c44-4cc0-b392-53d01a127b7d}, !- Space Type Name
  ,                                       !- Default Construction Set Name
  ,                                       !- Default Schedule Set Name
  0,                                      !- Direction of Relative North {deg}
  0,                                      !- X Origin {m}
  0,                                      !- Y Origin {m}
  0,                                      !- Z Origin {m}
  {38c49ed2-15e1-47aa-b4c7-f193e4c7e9a2}, !- Building Story Name
  {4d34f1e9-74e0-46a5-85b6-dbdd73b8c769}, !- Thermal Zone Name
  Yes;                                    !- Part of Total Floor Area

OS:SubSurface,
  {d28f3ce6-4398-4a00-8d74-b7207b6c0309}, !- Handle
  ER_NurseStn_Lobby_Flr_1_Wall_1_East_Window, !- Name
  FixedWindow,                            !- Sub Surface Type
  ,                                       !- Construction Name
  {8d178f1e-a3c7-42e4-b5f7-438716cdfe5c}, !- Surface Name
  ,                                       !- Outside Boundary Condition Object
  ,                                       !- View Factor to Ground
  ,                                       !- Shading Control Name
  ,                                       !- Frame and Divider Name
  1,                                      !- Multiplier
  ,                                       !- Number of Vertices
  70.104, 14.202, 2.134,                  !- X,Y,Z Vertex 1 {m}
  70.104, 14.202, 0.914,                  !- X,Y,Z Vertex 2 {m}
  70.104, 39.138, 0.914,                  !- X,Y,Z Vertex 3 {m}
  70.104, 39.138, 2.134;                  !- X,Y,Z Vertex 4 {m}

OS:Surface,
  {8d178f1e-a3c7-42e4-b5f7-438716cdfe5c}, !- Handle
  ER_NurseStn_Lobby_Flr_1_Wall_1_East,    !- Name
  Wall,                                   !- Surface Type
  ,                                       !- Construction Name
  {e421471b-c574-4e8a-b7a8-245348dd3775}, !- Space Name
  Outdoors,                               !- Outside Boundary Condition
  ,                                       !- Outside Boundary Condition Object
  SunExposed,                             !- Sun Exposure
  WindExposed,                            !- Wind Exposure
  ,                                       !- View Factor to Ground
  ,                                       !- Number of Vertices
  70.104, 13.716, 4.2683,                 !- X,Y,Z Vertex 1 {m}
  70.104, 13.716, 0,                      !- X,Y,Z Vertex 2 {m}
  70.104, 39.624, 0,                      !- X,Y,Z Vertex 3 {m}
  70.104, 39.624, 4.2683;                 !- X,Y,Z Vertex 4 {m}

OS:Connection,
  {3e6bf527-15bc-43ff-ac95-3592754417e1}, !- Handle
  {f3fd4a56-f1ef-4249-847a-c606fafa6704}, !- Name
  ,                                       !- Source Object
  11,                                     !- Outlet Port
  ,                                       !- Target Object
  2;                                      !- Inlet Port

OS:Space,
  {e421471b-c574-4e8a-b7a8-245348dd3775}, !- Handle
  ER_NurseStn_Lobby_Flr_1,                !- Name
  {28fe7dff-0bd5-43d4-b617-92ca7a6dd41e}, !- Space Type Name
  ,                                       !- Default Construction Set Name
  ,                                       !- Default Schedule Set Name
  0,                                      !- Direction of Relative North {deg}
  0,                                      !- X Origin {m}
  0,                                      !- Y Origin {m}
  0,                                      !- Z Origin {m}
  {38c49ed2-15e1-47aa-b4c7-f193e4c7e9a2}, !- Building Story Name
  {778e6c7e-3306-4e6d-9b8a-be65470eddc2}, !- Thermal Zone Name
  Yes;                                    !- Part of Total Floor Area

OS:Surface,
  {fa9db250-4eaa-4e84-a7c0-b8aee3dc0215}, !- Handle
  ICU_Flr_2_Wall_West,                    !- Name
  Wall,                                   !- Surface Type
  ,                                       !- Construction Name
  {e8233850-2c26-457b-b983-e0a87242a5d7}, !- Space Name
  Outdoors,                               !- Outside Boundary Condition
  ,                                       !- Outside Boundary Condition Object
  SunExposed,                             !- Sun Exposure
  WindExposed,                            !- Wind Exposure
  ,                                       !- View Factor to Ground
  ,                                       !- Number of Vertices
  0, 21.3415, 8.5366,                     !- X,Y,Z Vertex 1 {m}
  0, 21.3415, 4.2683,                     !- X,Y,Z Vertex 2 {m}
  0, 0, 4.2683,                           !- X,Y,Z Vertex 3 {m}
  0, 0, 8.5366;                           !- X,Y,Z Vertex 4 {m}

OS:Connection,
  {0b860b21-947f-4260-8066-dbb37a697374}, !- Handle
  {14a9a1c7-aa2d-48d6-9cdd-08371ff348ff}, !- Name
  ,                                       !- Source Object
  11,                                     !- Outlet Port
  ,                                       !- Target Object
  2;                                      !- Inlet Port

OS:Space,
  {e8233850-2c26-457b-b983-e0a87242a5d7}, !- Handle
  ICU_Flr_2,                              !- Name
  {89e825c0-c162-42fe-a9c2-36977efd225c}, !- Space Type Name
  ,                                       !- Default Construction Set Name
  ,                                       !- Default Schedule Set Name
  0,                                      !- Direction of Relative North {deg}
  0,                                      !- X Origin {m}
  0,                                      !- Y Origin {m}
  0,                                      !- Z Origin {m}
  {1e3b9437-af28-4330-af11-f2175f81b389}, !- Building Story Name
  {9056b3e6-c91f-4845-9379-6291e019ed98}, !- Thermal Zone Name
  Yes;                                    !- Part of Total Floor Area

OS:Surface,
  {7ef813b6-eb2c-42a4-a286-6d04e94df410}, !- Handle
  NurseStn_Lobby_Flr_4_Wall_3_West,       !- Name
  Wall,                                   !- Surface Type
  ,                                       !- Construction Name
  {31390124-80ad-4222-b08a-01be2ad61163}, !- Space Name
  Surface,                                !- Outside Boundary Condition
  {50cdc8e0-460e-4ed9-98f3-efb298b147f7}, !- Outside Boundary Condition Object
  NoSun,                                  !- Sun Exposure
  NoWind,                                 !- Wind Exposure
  ,                                       !- View Factor to Ground
  ,                                       !- Number of Vertices
  28.956, 19.812, 17.0732,                !- X,Y,Z Vertex 1 {m}
  28.956, 19.812, 12.8049,                !- X,Y,Z Vertex 2 {m}
  28.956, 10.668, 12.8049,                !- X,Y,Z Vertex 3 {m}
  28.956, 10.668, 17.0732;                !- X,Y,Z Vertex 4 {m}

OS:Connection,
  {7f66ef4c-e88a-4469-84ac-d2c872af167e}, !- Handle
  {77f87f14-6b1e-4f82-9bcc-4ac2a6aa9bac}, !- Name
  ,                                       !- Source Object
  11,                                     !- Outlet Port
  ,                                       !- Target Object
  2;                                      !- Inlet Port

OS:Space,
  {31390124-80ad-4222-b08a-01be2ad61163}, !- Handle
  NurseStn_Lobby_Flr_4,                   !- Name
  {96b8e7a0-0db4-4ed0-8df3-cda996ed7a08}, !- Space Type Name
  ,                                       !- Default Construction Set Name
  ,                                       !- Default Schedule Set Name
  0,                                      !- Direction of Relative North {deg}
  0,                                      !- X Origin {m}
  0,                                      !- Y Origin {m}
  0,                                      !- Z Origin {m}
  {1aafc060-b395-42bb-ac42-018f32537653}, !- Building Story Name
  {735c4368-8e2d-407e-a92c-71d6cefcc0a3}, !- Thermal Zone Name
  Yes;                                    !- Part of Total Floor Area

OS:Surface,
  {1cce1493-7595-436a-bae6-5f99284a3768}, !- Handle
  OR_NurseStn_Lobby_Flr_2_Wall_2_North,   !- Name
  Wall,                                   !- Surface Type
  ,                                       !- Construction Name
  {5fa7a66e-65f8-47fe-850f-4aff5015d62b}, !- Space Name
  Surface,                                !- Outside Boundary Condition
  {be5279e4-d34b-40c7-b768-983039f55c58}, !- Outside Boundary Condition Object
  NoSun,                                  !- Sun Exposure
  NoWind,                                 !- Wind Exposure
  ,                                       !- View Factor to Ground
  ,                                       !- Number of Vertices
  48.768, 22.86, 8.5366,                  !- X,Y,Z Vertex 1 {m}
  48.768, 22.86, 4.2683,                  !- X,Y,Z Vertex 2 {m}
  39.624, 22.86, 4.2683,                  !- X,Y,Z Vertex 3 {m}
  39.624, 22.86, 8.5366;                  !- X,Y,Z Vertex 4 {m}

OS:Connection,
  {256b3194-0009-4522-a1b2-be94e5745a1b}, !- Handle
  {dfc1c96b-4e39-4d92-a951-a7dcb57f4395}, !- Name
  ,                                       !- Source Object
  11,                                     !- Outlet Port
  ,                                       !- Target Object
  2;                                      !- Inlet Port

OS:Space,
  {5fa7a66e-65f8-47fe-850f-4aff5015d62b}, !- Handle
  OR_NurseStn_Lobby_Flr_2,                !- Name
  {96b8e7a0-0db4-4ed0-8df3-cda996ed7a08}, !- Space Type Name
  ,                                       !- Default Construction Set Name
  ,                                       !- Default Schedule Set Name
  0,                                      !- Direction of Relative North {deg}
  0,                                      !- X Origin {m}
  0,                                      !- Y Origin {m}
  0,                                      !- Z Origin {m}
  {1e3b9437-af28-4330-af11-f2175f81b389}, !- Building Story Name
  {ff9d8444-fa93-4683-9f5d-854e6e858f6c}, !- Thermal Zone Name
  Yes;                                    !- Part of Total Floor Area

OS:Surface,
  {75b7e856-5aee-441b-bd17-0a80eceb799b}, !- Handle
  PatRoom5_Mult10_Flr_3_Wall_West,        !- Name
  Wall,                                   !- Surface Type
  ,                                       !- Construction Name
  {2294b9a3-413c-42bf-8af1-ea3aba2f3837}, !- Space Name
  Surface,                                !- Outside Boundary Condition
  {aa0ec6ad-6024-410f-bd62-3b9e8d9f8f58}, !- Outside Boundary Condition Object
  NoSun,                                  !- Sun Exposure
  NoWind,                                 !- Wind Exposure
  ,                                       !- View Factor to Ground
  ,                                       !- Number of Vertices
  39.624, 53.34, 12.8049,                 !- X,Y,Z Vertex 1 {m}
  39.624, 53.34, 8.5366,                  !- X,Y,Z Vertex 2 {m}
  39.624, 48.768, 8.5366,                 !- X,Y,Z Vertex 3 {m}
  39.624, 48.768, 12.8049;                !- X,Y,Z Vertex 4 {m}

OS:Connection,
  {fecb179e-a394-4c09-9704-ae0179976cf6}, !- Handle
  {70be1f94-2d66-4632-8a57-6c1c9da9c155}, !- Name
  ,                                       !- Source Object
  11,                                     !- Outlet Port
  ,                                       !- Target Object
  2;                                      !- Inlet Port

OS:Space,
  {2294b9a3-413c-42bf-8af1-ea3aba2f3837}, !- Handle
  PatRoom5_Mult10_Flr_3,                  !- Name
  {a3ebcaf9-d609-4050-927c-b0a433280e0f}, !- Space Type Name
  ,                                       !- Default Construction Set Name
  ,                                       !- Default Schedule Set Name
  0,                                      !- Direction of Relative North {deg}
  0,                                      !- X Origin {m}
  0,                                      !- Y Origin {m}
  0,                                      !- Z Origin {m}
  {514e059b-8f52-4596-9482-1d615538be3e}, !- Building Story Name
  {993485fc-0325-4df1-b662-1ffba60f963d}, !- Thermal Zone Name
  Yes;                                    !- Part of Total Floor Area

OS:Surface,
  {944fcf1d-2911-419c-a398-62bbc2143ab9}, !- Handle
  Corridor_Flr_2_Wall_South,              !- Name
  Wall,                                   !- Surface Type
  ,                                       !- Construction Name
  {2870f103-d956-457d-b911-977241d8c35a}, !- Space Name
  Outdoors,                               !- Outside Boundary Condition
  ,                                       !- Outside Boundary Condition Object
  SunExposed,                             !- Sun Exposure
  WindExposed,                            !- Wind Exposure
  ,                                       !- View Factor to Ground
  ,                                       !- Number of Vertices
  28.956, 0, 8.5366,                      !- X,Y,Z Vertex 1 {m}
  28.956, 0, 4.2683,                      !- X,Y,Z Vertex 2 {m}
  39.624, 0, 4.2683,                      !- X,Y,Z Vertex 3 {m}
  39.624, 0, 8.5366;                      !- X,Y,Z Vertex 4 {m}

OS:Connection,
  {7aae01a8-0538-4b85-9c71-ef4033f04c3b}, !- Handle
  {aae603d0-da83-4685-8a3e-75f93df9dac2}, !- Name
  ,                                       !- Source Object
  11,                                     !- Outlet Port
  ,                                       !- Target Object
  2;                                      !- Inlet Port

OS:Space,
  {2870f103-d956-457d-b911-977241d8c35a}, !- Handle
  Corridor_Flr_2,                         !- Name
  {850045c5-8c44-4cc0-b392-53d01a127b7d}, !- Space Type Name
  ,                                       !- Default Construction Set Name
  ,                                       !- Default Schedule Set Name
  0,                                      !- Direction of Relative North {deg}
  0,                                      !- X Origin {m}
  0,                                      !- Y Origin {m}
  0,                                      !- Z Origin {m}
  {1e3b9437-af28-4330-af11-f2175f81b389}, !- Building Story Name
  {703efb9e-cca9-48f9-804b-9cc4cde966ba}, !- Thermal Zone Name
  Yes;                                    !- Part of Total Floor Area

OS:Surface,
  {a6a8afc1-01e4-43aa-800d-8230627da69a}, !- Handle
  ER_Trauma2_Flr_1_Floor,                 !- Name
  Floor,                                  !- Surface Type
  {c11808c8-4380-4fb5-9332-f14be4be5ccb}, !- Construction Name
  {dd7a92d0-924e-4003-b630-567ab7ab69ab}, !- Space Name
  Adiabatic,                              !- Outside Boundary Condition
  ,                                       !- Outside Boundary Condition Object
  NoSun,                                  !- Sun Exposure
  NoWind,                                 !- Wind Exposure
  ,                                       !- View Factor to Ground
  ,                                       !- Number of Vertices
  70.104, 53.34, 0,                       !- X,Y,Z Vertex 1 {m}
  70.104, 48.768, 0,                      !- X,Y,Z Vertex 2 {m}
  64.008, 48.768, 0,                      !- X,Y,Z Vertex 3 {m}
  64.008, 53.34, 0;                       !- X,Y,Z Vertex 4 {m}

OS:Connection,
  {ae697a91-2782-4652-92e9-f74f9cc63efc}, !- Handle
  {db697439-3010-4e0c-804b-51670722a262}, !- Name
  ,                                       !- Source Object
  11,                                     !- Outlet Port
  ,                                       !- Target Object
  2;                                      !- Inlet Port

OS:Space,
  {dd7a92d0-924e-4003-b630-567ab7ab69ab}, !- Handle
  ER_Trauma2_Flr_1,                       !- Name
  {cee124a4-d377-48ea-b5dc-ee8ddeb071d4}, !- Space Type Name
  ,                                       !- Default Construction Set Name
  ,                                       !- Default Schedule Set Name
  0,                                      !- Direction of Relative North {deg}
  0,                                      !- X Origin {m}
  0,                                      !- Y Origin {m}
  0,                                      !- Z Origin {m}
  {38c49ed2-15e1-47aa-b4c7-f193e4c7e9a2}, !- Building Story Name
  {b2b465c3-440c-4642-8df0-ff9a9d9c730e}, !- Thermal Zone Name
  Yes;                                    !- Part of Total Floor Area

OS:Surface,
  {cc584830-a067-4325-91bc-26106a56b2c5}, !- Handle
  Corridor_NW_Flr_4_Wall_5_South,         !- Name
  Wall,                                   !- Surface Type
  ,                                       !- Construction Name
  {4b0352d7-5b15-44a5-874c-f4c860e83600}, !- Space Name
  Surface,                                !- Outside Boundary Condition
  {bb22825c-3e5e-4013-a58b-184f0f9bd61e}, !- Outside Boundary Condition Object
  NoSun,                                  !- Sun Exposure
  NoWind,                                 !- Wind Exposure
  ,                                       !- View Factor to Ground
  ,                                       !- Number of Vertices
  4.572, 10.668, 17.0732,                 !- X,Y,Z Vertex 1 {m}
  4.572, 10.668, 12.8049,                 !- X,Y,Z Vertex 2 {m}
  9.144, 10.668, 12.8049,                 !- X,Y,Z Vertex 3 {m}
  9.144, 10.668, 17.0732;                 !- X,Y,Z Vertex 4 {m}

OS:Surface,
  {593ca8ad-9d9c-40de-bee9-c0a04136993f}, !- Handle
  PatRoom3_Mult10_Flr_4_Wall_North,       !- Name
  Wall,                                   !- Surface Type
  {919e6882-1dbf-4644-920f-77b4dfe0f1d7}, !- Construction Name
  {668fd0fa-a605-4127-8009-961514db81c7}, !- Space Name
  Adiabatic,                              !- Outside Boundary Condition
  ,                                       !- Outside Boundary Condition Object
  NoSun,                                  !- Sun Exposure
  NoWind,                                 !- Wind Exposure
  ,                                       !- View Factor to Ground
  ,                                       !- Number of Vertices
  70.104, 8.992, 17.0732,                 !- X,Y,Z Vertex 1 {m}
  70.104, 8.992, 12.8049,                 !- X,Y,Z Vertex 2 {m}
  65.532, 8.992, 12.8049,                 !- X,Y,Z Vertex 3 {m}
  65.532, 8.992, 17.0732;                 !- X,Y,Z Vertex 4 {m}

OS:Connection,
  {3feffa74-a211-4bc1-9d09-1c06287672a6}, !- Handle
  {bf5ceb8f-ddec-4805-a048-1cc94d656284}, !- Name
  ,                                       !- Source Object
  11,                                     !- Outlet Port
  ,                                       !- Target Object
  2;                                      !- Inlet Port

OS:Space,
  {668fd0fa-a605-4127-8009-961514db81c7}, !- Handle
  PatRoom3_Mult10_Flr_4,                  !- Name
  {a3ebcaf9-d609-4050-927c-b0a433280e0f}, !- Space Type Name
  ,                                       !- Default Construction Set Name
  ,                                       !- Default Schedule Set Name
  0,                                      !- Direction of Relative North {deg}
  0,                                      !- X Origin {m}
  0,                                      !- Y Origin {m}
  0,                                      !- Z Origin {m}
  {1aafc060-b395-42bb-ac42-018f32537653}, !- Building Story Name
  {3108c344-712e-477f-8a98-42d749fd3a05}, !- Thermal Zone Name
  Yes;                                    !- Part of Total Floor Area

OS:Connection,
  {f671ed73-72e9-44cd-8c37-20c987b58e51}, !- Handle
  {cf88a21f-aca8-46d4-9b97-f21d2b5f3d69}, !- Name
  ,                                       !- Source Object
  11,                                     !- Outlet Port
  ,                                       !- Target Object
  2;                                      !- Inlet Port

OS:Space,
  {f4b6e0eb-817b-405c-98f0-c425865851fb}, !- Handle
  NurseStn_Lobby_Flr_3,                   !- Name
  {96b8e7a0-0db4-4ed0-8df3-cda996ed7a08}, !- Space Type Name
  ,                                       !- Default Construction Set Name
  ,                                       !- Default Schedule Set Name
  0,                                      !- Direction of Relative North {deg}
  0,                                      !- X Origin {m}
  0,                                      !- Y Origin {m}
  0,                                      !- Z Origin {m}
  {514e059b-8f52-4596-9482-1d615538be3e}, !- Building Story Name
  {dbebe8bc-7b11-4dad-9809-b3d562d55b1e}, !- Thermal Zone Name
  Yes;                                    !- Part of Total Floor Area

OS:Connection,
  {26b0b67a-236a-4645-98e8-76128cca8acb}, !- Handle
  {fc646a4d-b9f3-45cd-bbd2-c4f8ec5db979}, !- Name
  ,                                       !- Source Object
  11,                                     !- Outlet Port
  ,                                       !- Target Object
  2;                                      !- Inlet Port

OS:Space,
  {75111445-9889-4e0e-bf8b-33e4ad0474cb}, !- Handle
  Office1_Flr_5,                          !- Name
  {ab961a75-be5d-465f-9127-01296d64f671}, !- Space Type Name
  ,                                       !- Default Construction Set Name
  ,                                       !- Default Schedule Set Name
  0,                                      !- Direction of Relative North {deg}