
OS:Version,
<<<<<<< HEAD
  {a95290d2-bf58-42e1-80bd-9bca32cb907c}, !- Handle
  3.0.1;                                  !- Version Identifier

OS:Schedule:Constant,
  {f01d1d58-de84-4ea0-b0b4-a30386b14838}, !- Handle
  Always On Discrete,                     !- Name
  {42e3ac15-20fe-4995-8732-4f0faa5b5309}, !- Schedule Type Limits Name
  1;                                      !- Value

OS:ScheduleTypeLimits,
  {42e3ac15-20fe-4995-8732-4f0faa5b5309}, !- Handle
=======
  {182b0746-2dc4-4027-9d1a-370bfe2cd16e}, !- Handle
  3.0.1;                                  !- Version Identifier

OS:Schedule:Constant,
  {170d64fe-009a-421a-b709-8896642baf5b}, !- Handle
  Always On Discrete,                     !- Name
  {33ecc323-f042-4993-bd96-ba6ba187f38a}, !- Schedule Type Limits Name
  1;                                      !- Value

OS:ScheduleTypeLimits,
  {33ecc323-f042-4993-bd96-ba6ba187f38a}, !- Handle
>>>>>>> master
  Always On Discrete Limits,              !- Name
  0,                                      !- Lower Limit Value
  1,                                      !- Upper Limit Value
  Discrete,                               !- Numeric Type
  Availability;                           !- Unit Type

OS:Site,
  {d628ef89-23e6-4381-a643-d45d869c0b05}, !- Handle
  New York-John F Kennedy Intl AP_NY_USA, !- Name
  40.65,                                  !- Latitude {deg}
  -73.8,                                  !- Longitude {deg}
  -5,                                     !- Time Zone {hr}
  5,                                      !- Elevation {m}
  City;                                   !- Terrain

OS:SimulationControl,
  {4e31ff8d-32bd-481e-9933-1c5f88b6c5eb}, !- Handle
  Yes,                                    !- Do Zone Sizing Calculation
  Yes,                                    !- Do System Sizing Calculation
  Yes,                                    !- Do Plant Sizing Calculation
  No,                                     !- Run Simulation for Sizing Periods
  Yes,                                    !- Run Simulation for Weather File Run Periods
  0.04,                                   !- Loads Convergence Tolerance Value {W}
  0.2,                                    !- Temperature Convergence Tolerance Value {deltaC}
  FullInteriorAndExterior,                !- Solar Distribution
  25,                                     !- Maximum Number of Warmup Days
  6,                                      !- Minimum Number of Warmup Days
  Yes,                                    !- Do HVAC Sizing Simulation for Sizing Periods
  1;                                      !- Maximum Number of HVAC Sizing Simulation Passes

OS:Surface,
  {6789e292-eb47-482c-9c86-55ba1bc52ed6}, !- Handle
  Core_Retail_Wall_South_3,               !- Name
  Wall,                                   !- Surface Type
  ,                                       !- Construction Name
  {e3918e2f-852e-438a-a248-c13d9fc146d0}, !- Space Name
  Surface,                                !- Outside Boundary Condition
  {8bf95084-bb5f-4d27-8a8b-7b57ea4b863c}, !- Outside Boundary Condition Object
  NoSun,                                  !- Sun Exposure
  NoWind,                                 !- Wind Exposure
  ,                                       !- View Factor to Ground
  ,                                       !- Number of Vertices
  29.135, 0, 6.096,                       !- X,Y,Z Vertex 1 {m}
  29.135, 0, 0,                           !- X,Y,Z Vertex 2 {m}
  54.27, 0, 0,                            !- X,Y,Z Vertex 3 {m}
  54.27, 0, 6.096;                        !- X,Y,Z Vertex 4 {m}

OS:Space,
  {e3918e2f-852e-438a-a248-c13d9fc146d0}, !- Handle
  Core_Retail,                            !- Name
  {41f69eaa-5eeb-42eb-996c-0f4de8e4a667}, !- Space Type Name
  ,                                       !- Default Construction Set Name
  ,                                       !- Default Schedule Set Name
  0,                                      !- Direction of Relative North {deg}
  0,                                      !- X Origin {m}
  6,                                      !- Y Origin {m}
  0,                                      !- Z Origin {m}
  {c7a01718-b524-4001-b115-c6ec1f1565c1}, !- Building Story Name
<<<<<<< HEAD
  {a15e2839-e022-447e-9f97-3f058ace2c1b}, !- Thermal Zone Name
=======
  {065c57f2-8681-4ca9-a95d-ac6f144a7af4}, !- Thermal Zone Name
>>>>>>> master
  Yes;                                    !- Part of Total Floor Area

OS:Space,
  {5e3f23ce-ce46-4ddb-aa00-f04cd954fb88}, !- Handle
  Point_Of_Sale,                          !- Name
  {bee7a769-0f42-4be2-92b3-1f1cd06fa604}, !- Space Type Name
  ,                                       !- Default Construction Set Name
  ,                                       !- Default Schedule Set Name
  0,                                      !- Direction of Relative North {deg}
  0,                                      !- X Origin {m}
  0,                                      !- Y Origin {m}
  0,                                      !- Z Origin {m}
  {c7a01718-b524-4001-b115-c6ec1f1565c1}, !- Building Story Name
<<<<<<< HEAD
  {058a5833-7474-4458-923b-c61dab506245}, !- Thermal Zone Name
=======
  {6715246d-bdee-4b3f-a915-cca7b2aa4e20}, !- Thermal Zone Name
>>>>>>> master
  Yes;                                    !- Part of Total Floor Area

OS:Surface,
  {3684a61f-1889-4620-be0b-4084d4a576d3}, !- Handle
  Front_Retail_Floor,                     !- Name
  Floor,                                  !- Surface Type
<<<<<<< HEAD
  {5ec05e1c-e464-43a8-a3cf-1ef49440f10f}, !- Construction Name
=======
  {c890c5a0-6ec5-4e10-bf73-70121b48cafc}, !- Construction Name
>>>>>>> master
  {5e7c1d0f-985d-4e7c-870a-fc6c94988ab0}, !- Space Name
  GroundFCfactorMethod,                   !- Outside Boundary Condition
  ,                                       !- Outside Boundary Condition Object
  NoSun,                                  !- Sun Exposure
  NoWind,                                 !- Wind Exposure
  ,                                       !- View Factor to Ground
  ,                                       !- Number of Vertices
  25.135, 6, 0,                           !- X,Y,Z Vertex 1 {m}
  25.135, 0, 0,                           !- X,Y,Z Vertex 2 {m}
  0, 0, 0,                                !- X,Y,Z Vertex 3 {m}
  0, 6, 0;                                !- X,Y,Z Vertex 4 {m}

OS:Space,
  {5e7c1d0f-985d-4e7c-870a-fc6c94988ab0}, !- Handle
  Front_Retail,                           !- Name
  {41f69eaa-5eeb-42eb-996c-0f4de8e4a667}, !- Space Type Name
  ,                                       !- Default Construction Set Name
  ,                                       !- Default Schedule Set Name
  0,                                      !- Direction of Relative North {deg}
  29.135,                                 !- X Origin {m}
  0,                                      !- Y Origin {m}
  0,                                      !- Z Origin {m}
  {c7a01718-b524-4001-b115-c6ec1f1565c1}, !- Building Story Name
<<<<<<< HEAD
  {7441a1b0-91ba-46c3-892e-6081db7929e1}, !- Thermal Zone Name
=======
  {6ddcd445-7959-4521-9c3f-efc8e35ae33f}, !- Thermal Zone Name
>>>>>>> master
  Yes;                                    !- Part of Total Floor Area

OS:Surface,
  {2bffbdce-0ae2-4874-b454-da281e05376d}, !- Handle
  Core_Retail_Wall_South_2,               !- Name
  Wall,                                   !- Surface Type
  ,                                       !- Construction Name
  {e3918e2f-852e-438a-a248-c13d9fc146d0}, !- Space Name
  Surface,                                !- Outside Boundary Condition
  {43572da1-981a-4d4f-82a7-bc1f9be9e514}, !- Outside Boundary Condition Object
  NoSun,                                  !- Sun Exposure
  NoWind,                                 !- Wind Exposure
  ,                                       !- View Factor to Ground
  ,                                       !- Number of Vertices
  25.135, -3, 6.096,                      !- X,Y,Z Vertex 1 {m}
  25.135, -3, 0,                          !- X,Y,Z Vertex 2 {m}
  29.135, -3, 0,                          !- X,Y,Z Vertex 3 {m}
  29.135, -3, 6.096;                      !- X,Y,Z Vertex 4 {m}

OS:Output:Meter,
  {1cf0f57b-5a34-40a9-a21a-fa9f1a9e6b66}, !- Handle
  ElectricityNet:Facility,                !- Name
  hourly,                                 !- Reporting Frequency
  True,                                   !- Meter File Only
  False;                                  !- Cumulative

OS:Surface,
  {afeaa6e3-da01-4f58-a03f-b7c5ca072c2c}, !- Handle
  Front_Retail_Wall_South,                !- Name
  Wall,                                   !- Surface Type
  ,                                       !- Construction Name
  {5e7c1d0f-985d-4e7c-870a-fc6c94988ab0}, !- Space Name
  Outdoors,                               !- Outside Boundary Condition
  ,                                       !- Outside Boundary Condition Object
  SunExposed,                             !- Sun Exposure
  WindExposed,                            !- Wind Exposure
  ,                                       !- View Factor to Ground
  ,                                       !- Number of Vertices
  0, 0, 6.096,                            !- X,Y,Z Vertex 1 {m}
  0, 0, 0,                                !- X,Y,Z Vertex 2 {m}
  25.135, 0, 0,                           !- X,Y,Z Vertex 3 {m}
  25.135, 0, 6.096;                       !- X,Y,Z Vertex 4 {m}

OS:Surface,
  {d6722c0b-ff00-4e53-8eab-a7b995d66e18}, !- Handle
  Back_Space_Roof,                        !- Name
  RoofCeiling,                            !- Surface Type
  ,                                       !- Construction Name
  {3d4b9ba5-883d-4fc8-bf66-520e25258a41}, !- Space Name
  Outdoors,                               !- Outside Boundary Condition
  ,                                       !- Outside Boundary Condition Object
  SunExposed,                             !- Sun Exposure
  WindExposed,                            !- Wind Exposure
  ,                                       !- View Factor to Ground
  ,                                       !- Number of Vertices
  54.27, 0, 6.096,                        !- X,Y,Z Vertex 1 {m}
  54.27, 7, 6.096,                        !- X,Y,Z Vertex 2 {m}
  0, 7, 6.096,                            !- X,Y,Z Vertex 3 {m}
  0, 0, 6.096;                            !- X,Y,Z Vertex 4 {m}

OS:Space,
  {3d4b9ba5-883d-4fc8-bf66-520e25258a41}, !- Handle
  Back_Space,                             !- Name
  {97f23ccd-8db1-4550-b7eb-9fd314f98603}, !- Space Type Name
  ,                                       !- Default Construction Set Name
  ,                                       !- Default Schedule Set Name
  0,                                      !- Direction of Relative North {deg}
  0,                                      !- X Origin {m}
  35.27,                                  !- Y Origin {m}
  0,                                      !- Z Origin {m}
  {c7a01718-b524-4001-b115-c6ec1f1565c1}, !- Building Story Name
<<<<<<< HEAD
  {b09aa3eb-9d80-486a-8196-4dae05cf1584}, !- Thermal Zone Name
=======
  {b8b27dfb-ef69-4a95-90fa-8673104fea03}, !- Thermal Zone Name
>>>>>>> master
  Yes;                                    !- Part of Total Floor Area

OS:Surface,
  {8bf95084-bb5f-4d27-8a8b-7b57ea4b863c}, !- Handle
  Front_Retail_Wall_North,                !- Name
  Wall,                                   !- Surface Type
  ,                                       !- Construction Name
  {5e7c1d0f-985d-4e7c-870a-fc6c94988ab0}, !- Space Name
  Surface,                                !- Outside Boundary Condition
  {6789e292-eb47-482c-9c86-55ba1bc52ed6}, !- Outside Boundary Condition Object
  NoSun,                                  !- Sun Exposure
  NoWind,                                 !- Wind Exposure
  ,                                       !- View Factor to Ground
  ,                                       !- Number of Vertices
  25.135, 6, 6.096,                       !- X,Y,Z Vertex 1 {m}
  25.135, 6, 0,                           !- X,Y,Z Vertex 2 {m}
  0, 6, 0,                                !- X,Y,Z Vertex 3 {m}
  0, 6, 6.096;                            !- X,Y,Z Vertex 4 {m}

OS:ConvergenceLimits,
  {3beb1ccc-7237-4dcd-a69b-cd3e764ee78a}, !- Handle
  1,                                      !- Minimum System Timestep {minutes}
  20;                                     !- Maximum HVAC Iterations

OS:Sizing:Parameters,
  {ede32cfa-f149-43eb-8c2e-1b859e103d90}, !- Handle
  1.2,                                    !- Heating Sizing Factor
  1.2,                                    !- Cooling Sizing Factor
  6;                                      !- Timesteps in Averaging Window

OS:SubSurface,
  {635cf325-9c30-4af5-9211-97e8552b27f4}, !- Handle
  skylights_R1C3,                         !- Name
  Skylight,                               !- Sub Surface Type
  ,                                       !- Construction Name
  {66414309-916b-416b-bfe4-4dedd3955db9}, !- Surface Name
  ,                                       !- Outside Boundary Condition Object
  ,                                       !- View Factor to Ground
  ,                                       !- Shading Control Name
  ,                                       !- Frame and Divider Name
  ,                                       !- Multiplier
  ,                                       !- Number of Vertices
  11.8872, 26.5268, 6.096,                !- X,Y,Z Vertex 1 {m}
  11.8872, 27.4412, 6.096,                !- X,Y,Z Vertex 2 {m}
  10.9728, 27.4412, 6.096,                !- X,Y,Z Vertex 3 {m}
  10.9728, 26.5268, 6.096;                !- X,Y,Z Vertex 4 {m}

OS:Surface,
  {66414309-916b-416b-bfe4-4dedd3955db9}, !- Handle
  Core_Retail_Roof,                       !- Name
  RoofCeiling,                            !- Surface Type
  ,                                       !- Construction Name
  {e3918e2f-852e-438a-a248-c13d9fc146d0}, !- Space Name
  Outdoors,                               !- Outside Boundary Condition
  ,                                       !- Outside Boundary Condition Object
  SunExposed,                             !- Sun Exposure
  WindExposed,                            !- Wind Exposure
  ,                                       !- View Factor to Ground
  ,                                       !- Number of Vertices
  0, 29.27, 6.096,                        !- X,Y,Z Vertex 1 {m}
  0, 0, 6.096,                            !- X,Y,Z Vertex 2 {m}
  54.27, 0, 6.096,                        !- X,Y,Z Vertex 3 {m}
  54.27, 29.27, 6.096;                    !- X,Y,Z Vertex 4 {m}

OS:Surface,
  {007c4111-77bc-466f-ac9b-021f9a1a4397}, !- Handle
  Core_Retail_Roof_Protrusion,            !- Name
  RoofCeiling,                            !- Surface Type
  ,                                       !- Construction Name
  {e3918e2f-852e-438a-a248-c13d9fc146d0}, !- Space Name
  Outdoors,                               !- Outside Boundary Condition
  ,                                       !- Outside Boundary Condition Object
  SunExposed,                             !- Sun Exposure
  WindExposed,                            !- Wind Exposure
  ,                                       !- View Factor to Ground
  ,                                       !- Number of Vertices
  25.135, 0, 6.096,                       !- X,Y,Z Vertex 1 {m}
  25.135, -3, 6.096,                      !- X,Y,Z Vertex 2 {m}
  29.135, -3, 6.096,                      !- X,Y,Z Vertex 3 {m}
  29.135, 0, 6.096;                       !- X,Y,Z Vertex 4 {m}

OS:Surface,
  {a31f7ea1-1720-443d-b667-3a336eea09fd}, !- Handle
  Core_Retail_Wall_West_2,                !- Name
  Wall,                                   !- Surface Type
  ,                                       !- Construction Name
  {e3918e2f-852e-438a-a248-c13d9fc146d0}, !- Space Name
  Outdoors,                               !- Outside Boundary Condition
  ,                                       !- Outside Boundary Condition Object
  SunExposed,                             !- Sun Exposure
  WindExposed,                            !- Wind Exposure
  ,                                       !- View Factor to Ground
  ,                                       !- Number of Vertices
  0, 29.27, 6.096,                        !- X,Y,Z Vertex 1 {m}
  0, 29.27, 0,                            !- X,Y,Z Vertex 2 {m}
  0, 0, 0,                                !- X,Y,Z Vertex 3 {m}
  0, 0, 6.096;                            !- X,Y,Z Vertex 4 {m}

OS:Surface,
  {e396167b-f101-4ea0-bff4-b443502f8dad}, !- Handle
  Front_Entry_Roof,                       !- Name
  RoofCeiling,                            !- Surface Type
  ,                                       !- Construction Name
  {7f004107-3619-4e77-8241-17e92dc82fb2}, !- Space Name
  Outdoors,                               !- Outside Boundary Condition
  ,                                       !- Outside Boundary Condition Object
  SunExposed,                             !- Sun Exposure
  WindExposed,                            !- Wind Exposure
  ,                                       !- View Factor to Ground
  ,                                       !- Number of Vertices
  4, 0, 6.096,                            !- X,Y,Z Vertex 1 {m}
  4, 3, 6.096,                            !- X,Y,Z Vertex 2 {m}
  0, 3, 6.096,                            !- X,Y,Z Vertex 3 {m}
  0, 0, 6.096;                            !- X,Y,Z Vertex 4 {m}

OS:Space,
  {7f004107-3619-4e77-8241-17e92dc82fb2}, !- Handle
  Front_Entry,                            !- Name
  {0bcafa2d-62fc-4553-b313-ffb78a469e75}, !- Space Type Name
  ,                                       !- Default Construction Set Name
  ,                                       !- Default Schedule Set Name
  0,                                      !- Direction of Relative North {deg}
  25.135,                                 !- X Origin {m}
  0,                                      !- Y Origin {m}
  0,                                      !- Z Origin {m}
  {c7a01718-b524-4001-b115-c6ec1f1565c1}, !- Building Story Name
<<<<<<< HEAD
  {524894e0-1e14-4a76-8c8a-dbe635df0127}, !- Thermal Zone Name
=======
  {c921d821-bc0f-4c53-b377-4d6cda5dd454}, !- Thermal Zone Name
>>>>>>> master
  Yes;                                    !- Part of Total Floor Area

OS:Surface,
  {fd1a4dbd-7476-471d-8700-4f09fca3ccc1}, !- Handle
  Back_Space_Wall_North,                  !- Name
  Wall,                                   !- Surface Type
  ,                                       !- Construction Name
  {3d4b9ba5-883d-4fc8-bf66-520e25258a41}, !- Space Name
  Outdoors,                               !- Outside Boundary Condition
  ,                                       !- Outside Boundary Condition Object
  SunExposed,                             !- Sun Exposure
  WindExposed,                            !- Wind Exposure
  ,                                       !- View Factor to Ground
  ,                                       !- Number of Vertices
  54.27, 7, 6.096,                        !- X,Y,Z Vertex 1 {m}
  54.27, 7, 0,                            !- X,Y,Z Vertex 2 {m}
  0, 7, 0,                                !- X,Y,Z Vertex 3 {m}
  0, 7, 6.096;                            !- X,Y,Z Vertex 4 {m}

OS:Surface,
  {7a4811b9-5817-4e99-9c55-1d924e457651}, !- Handle
  Back_Space_Wall_West,                   !- Name
  Wall,                                   !- Surface Type
  ,                                       !- Construction Name
  {3d4b9ba5-883d-4fc8-bf66-520e25258a41}, !- Space Name
  Outdoors,                               !- Outside Boundary Condition
  ,                                       !- Outside Boundary Condition Object
  SunExposed,                             !- Sun Exposure
  WindExposed,                            !- Wind Exposure
  ,                                       !- View Factor to Ground
  ,                                       !- Number of Vertices
  0, 7, 6.096,                            !- X,Y,Z Vertex 1 {m}
  0, 7, 0,                                !- X,Y,Z Vertex 2 {m}
  0, 0, 0,                                !- X,Y,Z Vertex 3 {m}
  0, 0, 6.096;                            !- X,Y,Z Vertex 4 {m}

OS:Output:Meter,
  {4e77ba7c-e5f3-47a3-a837-1f69f2f511d6}, !- Handle
  Electricity:Building,                   !- Name
  hourly,                                 !- Reporting Frequency
  True,                                   !- Meter File Only
  False;                                  !- Cumulative

OS:Surface,
  {12ad2ef1-1986-4d0d-aec9-9a5749ff76e8}, !- Handle
  Front_Entry_Wall_South,                 !- Name
  Wall,                                   !- Surface Type
  ,                                       !- Construction Name
  {7f004107-3619-4e77-8241-17e92dc82fb2}, !- Space Name
  Outdoors,                               !- Outside Boundary Condition
  ,                                       !- Outside Boundary Condition Object
  SunExposed,                             !- Sun Exposure
  WindExposed,                            !- Wind Exposure
  ,                                       !- View Factor to Ground
  ,                                       !- Number of Vertices
  0, 0, 6.096,                            !- X,Y,Z Vertex 1 {m}
  0, 0, 0,                                !- X,Y,Z Vertex 2 {m}
  4, 0, 0,                                !- X,Y,Z Vertex 3 {m}
  4, 0, 6.096;                            !- X,Y,Z Vertex 4 {m}

OS:Surface,
  {9e2084e4-ad19-44df-8840-0cdde15402c6}, !- Handle
  Point_Of_Sale_Wall_South,               !- Name
  Wall,                                   !- Surface Type
  ,                                       !- Construction Name
  {5e3f23ce-ce46-4ddb-aa00-f04cd954fb88}, !- Space Name
  Outdoors,                               !- Outside Boundary Condition
  ,                                       !- Outside Boundary Condition Object
  SunExposed,                             !- Sun Exposure
  WindExposed,                            !- Wind Exposure
  ,                                       !- View Factor to Ground
  ,                                       !- Number of Vertices
  0, 0, 6.096,                            !- X,Y,Z Vertex 1 {m}
  0, 0, 0,                                !- X,Y,Z Vertex 2 {m}
  25.135, 0, 0,                           !- X,Y,Z Vertex 3 {m}
  25.135, 0, 6.096;                       !- X,Y,Z Vertex 4 {m}

OS:SubSurface,
  {f29f0742-d78e-4901-835a-302597df7d48}, !- Handle
  skylights_R1C4,                         !- Name
  Skylight,                               !- Sub Surface Type
  ,                                       !- Construction Name
  {66414309-916b-416b-bfe4-4dedd3955db9}, !- Surface Name
  ,                                       !- Outside Boundary Condition Object
  ,                                       !- View Factor to Ground
  ,                                       !- Shading Control Name
  ,                                       !- Frame and Divider Name
  ,                                       !- Multiplier
  ,                                       !- Number of Vertices
  16.4592, 26.5268, 6.096,                !- X,Y,Z Vertex 1 {m}
  16.4592, 27.4412, 6.096,                !- X,Y,Z Vertex 2 {m}
  15.5448, 27.4412, 6.096,                !- X,Y,Z Vertex 3 {m}
  15.5448, 26.5268, 6.096;                !- X,Y,Z Vertex 4 {m}

OS:HeatBalanceAlgorithm,
  {318c86c4-06e2-43bc-afde-62940732115d}, !- Handle
  ConductionTransferFunction,             !- Algorithm
  200;                                    !- Surface Temperature Upper Limit {C}

OS:Surface,
  {81dda3e1-bd3c-457e-b12e-8a51c6c0efa9}, !- Handle
  Front_Entry_Floor,                      !- Name
  Floor,                                  !- Surface Type
<<<<<<< HEAD
  {7bebb31e-d508-40b1-be20-a3545c8fb3b6}, !- Construction Name
=======
  {e6cc962b-01d7-4ad7-adb7-8fdc18423dc1}, !- Construction Name
>>>>>>> master
  {7f004107-3619-4e77-8241-17e92dc82fb2}, !- Space Name
  GroundFCfactorMethod,                   !- Outside Boundary Condition
  ,                                       !- Outside Boundary Condition Object
  NoSun,                                  !- Sun Exposure
  NoWind,                                 !- Wind Exposure
  ,                                       !- View Factor to Ground
  ,                                       !- Number of Vertices
  4, 3, 0,                                !- X,Y,Z Vertex 1 {m}
  4, 0, 0,                                !- X,Y,Z Vertex 2 {m}
  0, 0, 0,                                !- X,Y,Z Vertex 3 {m}
  0, 3, 0;                                !- X,Y,Z Vertex 4 {m}

OS:ShadowCalculation,
  {cc8cb12c-d8f0-4621-8b41-f00cdaead550}, !- Handle
  PolygonClipping,                        !- Shading Calculation Method
  ,                                       !- Shading Calculation Update Frequency Method
  30,                                     !- Shading Calculation Update Frequency
  15000,                                  !- Maximum Figures in Shadow Overlap Calculations
  ,                                       !- Polygon Clipping Algorithm
  512,                                    !- Pixel Counting Resolution
  ,                                       !- Sky Diffuse Modeling Algorithm
  No,                                     !- Output External Shading Calculation Results
  No,                                     !- Disable Self-Shading Within Shading Zone Groups
  No;                                     !- Disable Self-Shading From Shading Zone Groups to Other Zones

OS:Surface,
  {960fe736-0622-4c72-b943-236be6cef102}, !- Handle
  Front_Retail_Wall_West_2,               !- Name
  Wall,                                   !- Surface Type
  ,                                       !- Construction Name
  {5e7c1d0f-985d-4e7c-870a-fc6c94988ab0}, !- Space Name
  Surface,                                !- Outside Boundary Condition
  {3a803ae8-2739-4184-b647-2d63ff0aa034}, !- Outside Boundary Condition Object
  NoSun,                                  !- Sun Exposure
  NoWind,                                 !- Wind Exposure
  ,                                       !- View Factor to Ground
  ,                                       !- Number of Vertices
  0, 6, 6.096,                            !- X,Y,Z Vertex 1 {m}
  0, 6, 0,                                !- X,Y,Z Vertex 2 {m}
  0, 3, 0,                                !- X,Y,Z Vertex 3 {m}
  0, 3, 6.096;                            !- X,Y,Z Vertex 4 {m}

OS:Surface,
  {eef61dd9-cda5-4d48-a929-6afcaf9b7bc2}, !- Handle
  Core_Retail_Floor,                      !- Name
  Floor,                                  !- Surface Type
<<<<<<< HEAD
  {f6860731-e5f3-45c4-93e7-bc39a5f8b28b}, !- Construction Name
=======
  {274d316f-29a3-4be4-8682-740ef9c58a6a}, !- Construction Name
>>>>>>> master
  {e3918e2f-852e-438a-a248-c13d9fc146d0}, !- Space Name
  GroundFCfactorMethod,                   !- Outside Boundary Condition
  ,                                       !- Outside Boundary Condition Object
  NoSun,                                  !- Sun Exposure
  NoWind,                                 !- Wind Exposure
  ,                                       !- View Factor to Ground
  ,                                       !- Number of Vertices
  54.27, 29.27, 0,                        !- X,Y,Z Vertex 1 {m}
  54.27, 0, 0,                            !- X,Y,Z Vertex 2 {m}
  29.135, 0, 0,                           !- X,Y,Z Vertex 3 {m}
  29.135, -3, 0,                          !- X,Y,Z Vertex 4 {m}
  25.135, -3, 0,                          !- X,Y,Z Vertex 5 {m}
  25.135, 0, 0,                           !- X,Y,Z Vertex 6 {m}
  0, 0, 0,                                !- X,Y,Z Vertex 7 {m}
  0, 29.27, 0;                            !- X,Y,Z Vertex 8 {m}

OS:Output:Meter,
  {9497f9cd-078f-4a57-875f-447b71785546}, !- Handle
  Electricity:Facility,                   !- Name
  hourly,                                 !- Reporting Frequency
  True,                                   !- Meter File Only
  False;                                  !- Cumulative

OS:SubSurface,
  {e1a3db3d-d2ab-49ea-ab9e-0768db4be47a}, !- Handle
  Front_Entry_Wall_South_Glazing,         !- Name
  FixedWindow,                            !- Sub Surface Type
  ,                                       !- Construction Name
  {12ad2ef1-1986-4d0d-aec9-9a5749ff76e8}, !- Surface Name
  ,                                       !- Outside Boundary Condition Object
  ,                                       !- View Factor to Ground
  ,                                       !- Shading Control Name
  ,                                       !- Frame and Divider Name
  1,                                      !- Multiplier
  ,                                       !- Number of Vertices
  0.5, 0, 2.66,                           !- X,Y,Z Vertex 1 {m}
  0.5, 0, 0.05,                           !- X,Y,Z Vertex 2 {m}
  3.5, 0, 0.05,                           !- X,Y,Z Vertex 3 {m}
  3.5, 0, 2.66;                           !- X,Y,Z Vertex 4 {m}

OS:Surface,
  {4558465b-f49a-4db7-8298-0505e3d34a13}, !- Handle
  Point_Of_Sale_Wall_East_1,              !- Name
  Wall,                                   !- Surface Type
  ,                                       !- Construction Name
  {5e3f23ce-ce46-4ddb-aa00-f04cd954fb88}, !- Space Name
  Surface,                                !- Outside Boundary Condition
  {d5faeb59-2fc1-4383-9e9b-3ddc4300d6b0}, !- Outside Boundary Condition Object
  NoSun,                                  !- Sun Exposure
  NoWind,                                 !- Wind Exposure
  ,                                       !- View Factor to Ground
  ,                                       !- Number of Vertices
  25.135, 0, 6.096,                       !- X,Y,Z Vertex 1 {m}
  25.135, 0, 0,                           !- X,Y,Z Vertex 2 {m}
  25.135, 3, 0,                           !- X,Y,Z Vertex 3 {m}