
OS:Version,
  {78f863d3-86fe-40dc-ac5e-3f28a4efc2ec}, !- Handle
  3.7.0;                                  !- Version Identifier

OS:Schedule:Constant,
  {6083cf0d-b1e0-4aba-bb6b-cc84ccb61fe9}, !- Handle
  Always On Discrete,                     !- Name
  {534694d1-a476-4eff-ae1a-76c73f67e152}, !- Schedule Type Limits Name
  1;                                      !- Value

OS:ScheduleTypeLimits,
  {534694d1-a476-4eff-ae1a-76c73f67e152}, !- Handle
  Always On Discrete Limits,              !- Name
  0,                                      !- Lower Limit Value
  1,                                      !- Upper Limit Value
  Discrete,                               !- Numeric Type
  Availability;                           !- Unit Type

OS:Timestep,
  {b0fa043b-3e91-4705-b798-a26bbea47620}, !- Handle
  6;                                      !- Number of Timesteps per Hour

OS:Sizing:Parameters,
  {447c3c1e-0ca1-4703-b75e-3724adaba27d}, !- Handle
  1.2,                                    !- Heating Sizing Factor
  1.2,                                    !- Cooling Sizing Factor
  6;                                      !- Timesteps in Averaging Window

OS:ConvergenceLimits,
  {bf4b4a50-e37f-4f91-8030-a5c89b79406b}, !- Handle
  1,                                      !- Minimum System Timestep {minutes}
  20;                                     !- Maximum HVAC Iterations

OS:SubSurface,
  {14a25927-c7c1-4cd4-bfed-b91ae977fc4d}, !- Handle
  SMstore2_Wall_1_Window_1,               !- Name
  FixedWindow,                            !- Sub Surface Type
  ,                                       !- Construction Name
  {e89a6184-fb6e-473a-b675-95973e6a9163}, !- Surface Name
  ,                                       !- Outside Boundary Condition Object
  ,                                       !- View Factor to Ground
  ,                                       !- Frame and Divider Name
  1,                                      !- Multiplier
  ,                                       !- Number of Vertices
  23.47, 0, 2.43,                         !- X,Y,Z Vertex 1 {m}
  23.47, 0, 0.91,                         !- X,Y,Z Vertex 2 {m}
  25.6, 0, 0.91,                          !- X,Y,Z Vertex 3 {m}
  25.6, 0, 2.43;                          !- X,Y,Z Vertex 4 {m}

OS:Surface,
  {e89a6184-fb6e-473a-b675-95973e6a9163}, !- Handle
  SMstore2_Wall_1,                        !- Name
  Wall,                                   !- Surface Type
  ,                                       !- Construction Name
  {5ea367b2-633e-43a1-9423-f1b770d2335d}, !- Space Name
  Outdoors,                               !- Outside Boundary Condition
  ,                                       !- Outside Boundary Condition Object
  SunExposed,                             !- Sun Exposure
  WindExposed,                            !- Wind Exposure
  ,                                       !- View Factor to Ground
  ,                                       !- Number of Vertices
  22.86, 0, 5.18,                         !- X,Y,Z Vertex 1 {m}
  22.86, 0, 0,                            !- X,Y,Z Vertex 2 {m}
  30.48, 0, 0,                            !- X,Y,Z Vertex 3 {m}
  30.48, 0, 5.18;                         !- X,Y,Z Vertex 4 {m}

OS:Connection,
  {637fe757-06d2-4128-a71e-ba7d3abdd7c4}, !- Handle
  ,                                       !- Source Object
  11,                                     !- Outlet Port
  ,                                       !- Target Object
  2;                                      !- Inlet Port

OS:Space,
  {5ea367b2-633e-43a1-9423-f1b770d2335d}, !- Handle
  SMstore2,                               !- Name
  {82ebec79-fe6e-440d-8555-17e64bae1191}, !- Space Type Name
  ,                                       !- Default Construction Set Name
  ,                                       !- Default Schedule Set Name
  0,                                      !- Direction of Relative North {deg}
  0,                                      !- X Origin {m}
  0,                                      !- Y Origin {m}
  0,                                      !- Z Origin {m}
  {260f6357-91fd-4976-8e49-4c3b37d44115}, !- Building Story Name
  {67fc8db3-010d-41aa-928a-339bfdae25fe}, !- Thermal Zone Name
  Yes,                                    !- Part of Total Floor Area
  ;                                       !- Design Specification Outdoor Air Object Name

OS:Surface,
  {c9d433d2-ebb4-4a63-8b65-cea8744af1e0}, !- Handle
  SMstore7_Wall_2,                        !- Name
  Wall,                                   !- Surface Type
  ,                                       !- Construction Name
  {89130de1-d42c-444e-801d-7d9adf3e04aa}, !- Space Name
  Surface,                                !- Outside Boundary Condition
  {3e0ead8c-d3e0-4261-be91-5aab3370e2b0}, !- Outside Boundary Condition Object
  NoSun,                                  !- Sun Exposure
  NoWind,                                 !- Wind Exposure
  ,                                       !- View Factor to Ground
  ,                                       !- Number of Vertices
  76.2, 22.86, 5.18,                      !- X,Y,Z Vertex 1 {m}
  76.2, 22.86, 0,                         !- X,Y,Z Vertex 2 {m}
  76.2, 0, 0,                             !- X,Y,Z Vertex 3 {m}
  76.2, 0, 5.18;                          !- X,Y,Z Vertex 4 {m}

OS:Connection,
  {34fa492d-0a22-458d-872a-499294398366}, !- Handle
  ,                                       !- Source Object
  11,                                     !- Outlet Port
  ,                                       !- Target Object
  2;                                      !- Inlet Port

OS:Space,
  {89130de1-d42c-444e-801d-7d9adf3e04aa}, !- Handle
  SMstore7,                               !- Name
  {b9e42704-b5d6-4a10-a6f1-2e10b3f9165e}, !- Space Type Name
  ,                                       !- Default Construction Set Name
  ,                                       !- Default Schedule Set Name
  0,                                      !- Direction of Relative North {deg}
  0,                                      !- X Origin {m}
  0,                                      !- Y Origin {m}
  0,                                      !- Z Origin {m}
  {260f6357-91fd-4976-8e49-4c3b37d44115}, !- Building Story Name
  {7f13c06e-47dc-461d-8f0e-7303f5b6a9a7}, !- Thermal Zone Name
  Yes,                                    !- Part of Total Floor Area
  ;                                       !- Design Specification Outdoor Air Object Name

OS:Surface,
  {fb95905d-4253-4af1-a293-e7e070c3a65f}, !- Handle
  SMstore3_Floor,                         !- Name
  Floor,                                  !- Surface Type
  {a05dde49-2b75-4a7c-a94e-58a006b35d00}, !- Construction Name
  {ab4d5305-d428-465c-8009-bc4150273508}, !- Space Name
  GroundFCfactorMethod,                   !- Outside Boundary Condition
  ,                                       !- Outside Boundary Condition Object
  NoSun,                                  !- Sun Exposure
  NoWind,                                 !- Wind Exposure
  ,                                       !- View Factor to Ground
  ,                                       !- Number of Vertices
  38.1, 22.86, 0,                         !- X,Y,Z Vertex 1 {m}
  38.1, 0, 0,                             !- X,Y,Z Vertex 2 {m}
  30.48, 0, 0,                            !- X,Y,Z Vertex 3 {m}
  30.48, 22.86, 0;                        !- X,Y,Z Vertex 4 {m}

OS:Connection,
  {f4190b94-559e-4147-855a-5243d0c11b0a}, !- Handle
  ,                                       !- Source Object
  11,                                     !- Outlet Port
  ,                                       !- Target Object
  2;                                      !- Inlet Port

OS:Space,
  {ab4d5305-d428-465c-8009-bc4150273508}, !- Handle
  SMstore3,                               !- Name
  {82ebec79-fe6e-440d-8555-17e64bae1191}, !- Space Type Name
  ,                                       !- Default Construction Set Name
  ,                                       !- Default Schedule Set Name
  0,                                      !- Direction of Relative North {deg}
  0,                                      !- X Origin {m}
  0,                                      !- Y Origin {m}
  0,                                      !- Z Origin {m}
  {260f6357-91fd-4976-8e49-4c3b37d44115}, !- Building Story Name
  {0838dc82-ee43-4704-96b5-0b3aa351804d}, !- Thermal Zone Name
  Yes,                                    !- Part of Total Floor Area
  ;                                       !- Design Specification Outdoor Air Object Name

OS:Connection,
  {daeb7ca2-b728-4478-8d3c-8ead3c27174d}, !- Handle
  ,                                       !- Source Object
  11,                                     !- Outlet Port
  ,                                       !- Target Object
  2;                                      !- Inlet Port

OS:Space,
  {6d54358c-9390-42e5-bc44-ebe58628f22c}, !- Handle
  SMstore1,                               !- Name
  {2584f38b-718e-4548-8157-0ad0320617f5}, !- Space Type Name
  ,                                       !- Default Construction Set Name
  ,                                       !- Default Schedule Set Name
  0,                                      !- Direction of Relative North {deg}
  0,                                      !- X Origin {m}
  0,                                      !- Y Origin {m}
  0,                                      !- Z Origin {m}
  {260f6357-91fd-4976-8e49-4c3b37d44115}, !- Building Story Name
  {389e318d-8866-458f-861d-bd331b062067}, !- Thermal Zone Name
  Yes,                                    !- Part of Total Floor Area
  ;                                       !- Design Specification Outdoor Air Object Name

OS:Connection,
  {2efd3352-1353-4c06-bd5c-fdf2f3cd5f18}, !- Handle
  ,                                       !- Source Object
  11,                                     !- Outlet Port
  ,                                       !- Target Object
  2;                                      !- Inlet Port

OS:Space,
  {4ab39cda-851f-4e81-b908-ae359b3e2c57}, !- Handle
  LGstore2,                               !- Name
  {b9e42704-b5d6-4a10-a6f1-2e10b3f9165e}, !- Space Type Name
  ,                                       !- Default Construction Set Name
  ,                                       !- Default Schedule Set Name
  0,                                      !- Direction of Relative North {deg}
  0,                                      !- X Origin {m}
  0,                                      !- Y Origin {m}
  0,                                      !- Z Origin {m}
  {260f6357-91fd-4976-8e49-4c3b37d44115}, !- Building Story Name
  {e2fcd083-3fd1-48d6-9138-dd132cb7bc3f}, !- Thermal Zone Name
  Yes,                                    !- Part of Total Floor Area
  ;                                       !- Design Specification Outdoor Air Object Name

OS:SubSurface,
  {5fe688f0-b788-4cfc-b662-00b35af892a4}, !- Handle
  SMstore1_Wall_1_Window_1,               !- Name
  FixedWindow,                            !- Sub Surface Type
  ,                                       !- Construction Name
  {01fd49f6-4fce-4ecf-85b7-dc00716b7a6a}, !- Surface Name
  ,                                       !- Outside Boundary Condition Object
  ,                                       !- View Factor to Ground
  ,                                       !- Frame and Divider Name
  1,                                      !- Multiplier
  ,                                       !- Number of Vertices
  15.85, 0, 2.43,                         !- X,Y,Z Vertex 1 {m}
  15.85, 0, 0.91,                         !- X,Y,Z Vertex 2 {m}
  17.98, 0, 0.91,                         !- X,Y,Z Vertex 3 {m}
  17.98, 0, 2.43;                         !- X,Y,Z Vertex 4 {m}

OS:Surface,
  {01fd49f6-4fce-4ecf-85b7-dc00716b7a6a}, !- Handle
  SMstore1_Wall_1,                        !- Name
  Wall,                                   !- Surface Type
  ,                                       !- Construction Name
  {6d54358c-9390-42e5-bc44-ebe58628f22c}, !- Space Name
  Outdoors,                               !- Outside Boundary Condition
  ,                                       !- Outside Boundary Condition Object
  SunExposed,                             !- Sun Exposure
  WindExposed,                            !- Wind Exposure
  ,                                       !- View Factor to Ground
  ,                                       !- Number of Vertices
  15.24, 0, 5.18,                         !- X,Y,Z Vertex 1 {m}
  15.24, 0, 0,                            !- X,Y,Z Vertex 2 {m}
  22.86, 0, 0,                            !- X,Y,Z Vertex 3 {m}
  22.86, 0, 5.18;                         !- X,Y,Z Vertex 4 {m}

OS:Surface,
  {aca2c652-2a49-4925-b828-2ae7e0317fc5}, !- Handle
  SMstore3_Wall_1,                        !- Name
  Wall,                                   !- Surface Type
  ,                                       !- Construction Name
  {ab4d5305-d428-465c-8009-bc4150273508}, !- Space Name
  Outdoors,                               !- Outside Boundary Condition
  ,                                       !- Outside Boundary Condition Object
  SunExposed,                             !- Sun Exposure
  WindExposed,                            !- Wind Exposure
  ,                                       !- View Factor to Ground
  ,                                       !- Number of Vertices
  30.48, 0, 5.18,                         !- X,Y,Z Vertex 1 {m}
  30.48, 0, 0,                            !- X,Y,Z Vertex 2 {m}
  38.1, 0, 0,                             !- X,Y,Z Vertex 3 {m}
  38.1, 0, 5.18;                          !- X,Y,Z Vertex 4 {m}

OS:SubSurface,
  {44bb76f7-1d67-4127-bab8-61f4b013d084}, !- Handle
  LGstore2_Wall_1_Door_1,                 !- Name
  GlassDoor,                              !- Sub Surface Type
  ,                                       !- Construction Name
  {cfdbec31-617a-4953-913a-420145a16f31}, !- Surface Name
  ,                                       !- Outside Boundary Condition Object
  ,                                       !- View Factor to Ground
  ,                                       !- Frame and Divider Name
  1,                                      !- Multiplier
  ,                                       !- Number of Vertices
  48.62, 0, 2.13,                         !- X,Y,Z Vertex 1 {m}
  48.62, 0, 0,                            !- X,Y,Z Vertex 2 {m}
  50.44, 0, 0,                            !- X,Y,Z Vertex 3 {m}
  50.44, 0, 2.13;                         !- X,Y,Z Vertex 4 {m}

OS:Surface,
  {cfdbec31-617a-4953-913a-420145a16f31}, !- Handle
  LGstore2_Wall_1,                        !- Name
  Wall,                                   !- Surface Type
  ,                                       !- Construction Name
  {4ab39cda-851f-4e81-b908-ae359b3e2c57}, !- Space Name
  Outdoors,                               !- Outside Boundary Condition
  ,                                       !- Outside Boundary Condition Object
  SunExposed,                             !- Sun Exposure
  WindExposed,                            !- Wind Exposure
  ,                                       !- View Factor to Ground
  ,                                       !- Number of Vertices
  45.72, 0, 5.18,                         !- X,Y,Z Vertex 1 {m}
  45.72, 0, 0,                            !- X,Y,Z Vertex 2 {m}
  60.96, 0, 0,                            !- X,Y,Z Vertex 3 {m}
  60.96, 0, 5.18;                         !- X,Y,Z Vertex 4 {m}

OS:Connection,
  {17acd66b-7f78-4f32-8046-d388e2ab97f0}, !- Handle
  ,                                       !- Source Object
  11,                                     !- Outlet Port
  ,                                       !- Target Object
  2;                                      !- Inlet Port

OS:Space,
  {afa5c72f-ec16-4fb7-9014-0c120fd3d938}, !- Handle
  SMstore5,                               !- Name
  {b9e42704-b5d6-4a10-a6f1-2e10b3f9165e}, !- Space Type Name
  ,                                       !- Default Construction Set Name
  ,                                       !- Default Schedule Set Name
  0,                                      !- Direction of Relative North {deg}
  0,                                      !- X Origin {m}
  0,                                      !- Y Origin {m}
  0,                                      !- Z Origin {m}
  {260f6357-91fd-4976-8e49-4c3b37d44115}, !- Building Story Name
  {9a87b00d-febc-4a9f-9b08-9cc7e7177b11}, !- Thermal Zone Name
  Yes,                                    !- Part of Total Floor Area
  ;                                       !- Design Specification Outdoor Air Object Name

OS:Connection,
  {29d53957-5c84-42dc-b815-cc7e273052e0}, !- Handle
  ,                                       !- Source Object
  11,                                     !- Outlet Port
  ,                                       !- Target Object
  2;                                      !- Inlet Port

OS:Space,
  {3cabba90-ed6b-4267-bb90-b1645c10f28e}, !- Handle
  LGstore1,                               !- Name
  {2584f38b-718e-4548-8157-0ad0320617f5}, !- Space Type Name
  ,                                       !- Default Construction Set Name
  ,                                       !- Default Schedule Set Name
  0,                                      !- Direction of Relative North {deg}
  0,                                      !- X Origin {m}
  0,                                      !- Y Origin {m}
  0,                                      !- Z Origin {m}
  {260f6357-91fd-4976-8e49-4c3b37d44115}, !- Building Story Name
  {ec890700-f67a-41f7-874b-cad1124e4827}, !- Thermal Zone Name
  Yes,                                    !- Part of Total Floor Area
  ;                                       !- Design Specification Outdoor Air Object Name

OS:Surface,
  {35c9e248-8c29-4c78-be0b-e64f33f3eb43}, !- Handle
  SMstore3_Roof,                          !- Name
  RoofCeiling,                            !- Surface Type
  ,                                       !- Construction Name
  {ab4d5305-d428-465c-8009-bc4150273508}, !- Space Name
  Outdoors,                               !- Outside Boundary Condition
  ,                                       !- Outside Boundary Condition Object
  SunExposed,                             !- Sun Exposure
  WindExposed,                            !- Wind Exposure
  ,                                       !- View Factor to Ground
  ,                                       !- Number of Vertices
  38.1, 0, 5.18,                          !- X,Y,Z Vertex 1 {m}
  38.1, 22.86, 5.18,                      !- X,Y,Z Vertex 2 {m}
  30.48, 22.86, 5.18,                     !- X,Y,Z Vertex 3 {m}
  30.48, 0, 5.18;                         !- X,Y,Z Vertex 4 {m}

OS:SubSurface,
  {f1b6ca9f-c7a8-410c-a2f2-7088de2325e8}, !- Handle
  SMstore8_Wall_1_Door,                   !- Name
  GlassDoor,                              !- Sub Surface Type
  ,                                       !- Construction Name
  {a981e60b-bd4a-4547-b26f-13d5b83eddb7}, !- Surface Name
  ,                                       !- Outside Boundary Condition Object
  ,                                       !- View Factor to Ground
  ,                                       !- Frame and Divider Name
  1,                                      !- Multiplier
  ,                                       !- Number of Vertices
  86.72, 0, 2.13,                         !- X,Y,Z Vertex 1 {m}
  86.72, 0, 0,                            !- X,Y,Z Vertex 2 {m}
  88.54, 0, 0,                            !- X,Y,Z Vertex 3 {m}
  88.54, 0, 2.13;                         !- X,Y,Z Vertex 4 {m}

OS:Surface,
  {a981e60b-bd4a-4547-b26f-13d5b83eddb7}, !- Handle
  SMstore8_Wall_1,                        !- Name
  Wall,                                   !- Surface Type
  ,                                       !- Construction Name
  {2ce2b667-ac4f-4f47-b0e0-c3246eb94e55}, !- Space Name
  Outdoors,                               !- Outside Boundary Condition
  ,                                       !- Outside Boundary Condition Object
  SunExposed,                             !- Sun Exposure
  WindExposed,                            !- Wind Exposure
  ,                                       !- View Factor to Ground
  ,                                       !- Number of Vertices
  83.82, 0, 5.18,                         !- X,Y,Z Vertex 1 {m}
  83.82, 0, 0,                            !- X,Y,Z Vertex 2 {m}
  91.44, 0, 0,                            !- X,Y,Z Vertex 3 {m}
  91.44, 0, 5.18;                         !- X,Y,Z Vertex 4 {m}

OS:Connection,
  {5afa1051-e506-44e1-b85e-dd3810e53214}, !- Handle
  ,                                       !- Source Object
  11,                                     !- Outlet Port
  ,                                       !- Target Object
  2;                                      !- Inlet Port

OS:Space,
  {2ce2b667-ac4f-4f47-b0e0-c3246eb94e55}, !- Handle
  SMstore8,                               !- Name
  {b9e42704-b5d6-4a10-a6f1-2e10b3f9165e}, !- Space Type Name
  ,                                       !- Default Construction Set Name
  ,                                       !- Default Schedule Set Name
  0,                                      !- Direction of Relative North {deg}
  0,                                      !- X Origin {m}
  0,                                      !- Y Origin {m}
  0,                                      !- Z Origin {m}
  {260f6357-91fd-4976-8e49-4c3b37d44115}, !- Building Story Name
  {0655f04d-a4a3-421c-aafb-8d3ea1884a63}, !- Thermal Zone Name
  Yes;                                    !- Part of Total Floor Area

OS:SubSurface,
  {f724e12c-b374-4ab4-bcb4-dd7bd39d5e9d}, !- Handle
  SMstore1_Wall_3_Door,                   !- Name
  Door,                                   !- Sub Surface Type
  ,                                       !- Construction Name
  {730fcd9e-2ef7-4fef-bb77-e8c7e38f6d11}, !- Surface Name
  ,                                       !- Outside Boundary Condition Object
  ,                                       !- View Factor to Ground
  ,                                       !- Frame and Divider Name
  1,                                      !- Multiplier
  ,                                       !- Number of Vertices
  19.97, 22.86, 2.13,                     !- X,Y,Z Vertex 1 {m}
  19.97, 22.86, 0,                        !- X,Y,Z Vertex 2 {m}
  18.14, 22.86, 0,                        !- X,Y,Z Vertex 3 {m}
  18.14, 22.86, 2.13;                     !- X,Y,Z Vertex 4 {m}

OS:Surface,
  {730fcd9e-2ef7-4fef-bb77-e8c7e38f6d11}, !- Handle
  SMstore1_Wall_3,                        !- Name
  Wall,                                   !- Surface Type
  ,                                       !- Construction Name
  {6d54358c-9390-42e5-bc44-ebe58628f22c}, !- Space Name
  Outdoors,                               !- Outside Boundary Condition
  ,                                       !- Outside Boundary Condition Object
  SunExposed,                             !- Sun Exposure
  WindExposed,                            !- Wind Exposure
  ,                                       !- View Factor to Ground
  ,                                       !- Number of Vertices
  22.86, 22.86, 5.18,                     !- X,Y,Z Vertex 1 {m}
  22.86, 22.86, 0,                        !- X,Y,Z Vertex 2 {m}
  15.24, 22.86, 0,                        !- X,Y,Z Vertex 3 {m}
  15.24, 22.86, 5.18;                     !- X,Y,Z Vertex 4 {m}

OS:Connection,
  {7b5d66a9-ca22-48a4-9e6d-f0ca7607ebf7}, !- Handle
  ,                                       !- Source Object
  11,                                     !- Outlet Port
  ,                                       !- Target Object
  2;                                      !- Inlet Port

OS:Space,
  {cbc69268-5c4e-4419-ad78-59e2fa30f77b}, !- Handle
  SMstore4,                               !- Name
  {82ebec79-fe6e-440d-8555-17e64bae1191}, !- Space Type Name
  ,                                       !- Default Construction Set Name
  ,                                       !- Default Schedule Set Name
  0,                                      !- Direction of Relative North {deg}
  0,                                      !- X Origin {m}
  0,                                      !- Y Origin {m}
  0,                                      !- Z Origin {m}
  {260f6357-91fd-4976-8e49-4c3b37d44115}, !- Building Story Name
  {6ec1f183-e12f-4832-91b8-01c21e2d058c}, !- Thermal Zone Name
  Yes,                                    !- Part of Total Floor Area
  ;                                       !- Design Specification Outdoor Air Object Name

OS:Surface,
  {a101a558-bb0b-4742-9b63-9c3ff75af0c7}, !- Handle
  SMstore5_Wall_4,                        !- Name
  Wall,                                   !- Surface Type
  ,                                       !- Construction Name
  {afa5c72f-ec16-4fb7-9014-0c120fd3d938}, !- Space Name
  Surface,                                !- Outside Boundary Condition
  {8d6f4085-54c4-4213-935a-c82d5ea82b55}, !- Outside Boundary Condition Object
  NoSun,                                  !- Sun Exposure
  NoWind,                                 !- Wind Exposure
  ,                                       !- View Factor to Ground
  ,                                       !- Number of Vertices
  68.58, 0, 5.18,                         !- X,Y,Z Vertex 1 {m}
  68.58, 0, 0,                            !- X,Y,Z Vertex 2 {m}
  68.58, 22.86, 0,                        !- X,Y,Z Vertex 3 {m}
  68.58, 22.86, 5.18;                     !- X,Y,Z Vertex 4 {m}

OS:SubSurface,
  {471c6a1f-5260-4ff5-ac96-527625bdefc7}, !- Handle
  SMstore4_Wall_1_Door,                   !- Name
  GlassDoor,                              !- Sub Surface Type
  ,                                       !- Construction Name
  {8f9ca5b4-0882-4430-9ea2-a289a6f21d1c}, !- Surface Name
  ,                                       !- Outside Boundary Condition Object
  ,                                       !- View Factor to Ground
  ,                                       !- Frame and Divider Name
  1,                                      !- Multiplier
  ,                                       !- Number of Vertices
  41, 0, 2.13,                            !- X,Y,Z Vertex 1 {m}
  41, 0, 0,                               !- X,Y,Z Vertex 2 {m}
  42.82, 0, 0,                            !- X,Y,Z Vertex 3 {m}
  42.82, 0, 2.13;                         !- X,Y,Z Vertex 4 {m}

OS:Surface,
  {8f9ca5b4-0882-4430-9ea2-a289a6f21d1c}, !- Handle
  SMstore4_Wall_1,                        !- Name
  Wall,                                   !- Surface Type
  ,                                       !- Construction Name
  {cbc69268-5c4e-4419-ad78-59e2fa30f77b}, !- Space Name
  Outdoors,                               !- Outside Boundary Condition
  ,                                       !- Outside Boundary Condition Object
  SunExposed,                             !- Sun Exposure
  WindExposed,                            !- Wind Exposure
  ,                                       !- View Factor to Ground
  ,                                       !- Number of Vertices
  38.1, 0, 5.18,                          !- X,Y,Z Vertex 1 {m}
  38.1, 0, 0,                             !- X,Y,Z Vertex 2 {m}
  45.72, 0, 0,                            !- X,Y,Z Vertex 3 {m}
  45.72, 0, 5.18;                         !- X,Y,Z Vertex 4 {m}

OS:Surface,
  {9ab959d2-7a1d-45ff-8033-6340ab0ec147}, !- Handle
  SMstore2_Wall_3,                        !- Name
  Wall,                                   !- Surface Type
  ,                                       !- Construction Name
  {5ea367b2-633e-43a1-9423-f1b770d2335d}, !- Space Name
  Outdoors,                               !- Outside Boundary Condition
  ,                                       !- Outside Boundary Condition Object
  SunExposed,                             !- Sun Exposure
  WindExposed,                            !- Wind Exposure
  ,                                       !- View Factor to Ground
  ,                                       !- Number of Vertices
  30.48, 22.86, 5.18,                     !- X,Y,Z Vertex 1 {m}
  30.48, 22.86, 0,                        !- X,Y,Z Vertex 2 {m}
  22.86, 22.86, 0,                        !- X,Y,Z Vertex 3 {m}
  22.86, 22.86, 5.18;                     !- X,Y,Z Vertex 4 {m}

OS:SubSurface,
  {9be446ee-9ec7-422d-9553-927e054189f0}, !- Handle
  SMstore4_Wall_3_Door,                   !- Name
  Door,                                   !- Sub Surface Type
  ,                                       !- Construction Name
  {ffacf618-7d8f-4bd0-b97f-8beb810f02a6}, !- Surface Name
  ,                                       !- Outside Boundary Condition Object
  ,                                       !- View Factor to Ground
  ,                                       !- Frame and Divider Name
  1,                                      !- Multiplier
  ,                                       !- Number of Vertices
  42.82, 22.86, 2.13,                     !- X,Y,Z Vertex 1 {m}
  42.82, 22.86, 0,                        !- X,Y,Z Vertex 2 {m}
  41, 22.86, 0,                           !- X,Y,Z Vertex 3 {m}
  41, 22.86, 2.13;                        !- X,Y,Z Vertex 4 {m}

OS:Surface,
  {ffacf618-7d8f-4bd0-b97f-8beb810f02a6}, !- Handle
  SMstore4_Wall_3,                        !- Name
  Wall,                                   !- Surface Type
  ,                                       !- Construction Name
  {cbc69268-5c4e-4419-ad78-59e2fa30f77b}, !- Space Name
  Outdoors,                               !- Outside Boundary Condition
  ,                                       !- Outside Boundary Condition Object
  SunExposed,                             !- Sun Exposure
  WindExposed,                            !- Wind Exposure
  ,                                       !- View Factor to Ground