
OS:Version,
<<<<<<< HEAD
  {c5737673-0f14-4950-9311-bcd28184ece0}, !- Handle
  3.0.1;                                  !- Version Identifier

OS:Schedule:Constant,
  {bc89935c-101e-471d-9988-6aac40399518}, !- Handle
  Always On Discrete,                     !- Name
  {97b38f2d-52ca-4de6-b1c5-291a205f4dfe}, !- Schedule Type Limits Name
  1;                                      !- Value

OS:ScheduleTypeLimits,
  {97b38f2d-52ca-4de6-b1c5-291a205f4dfe}, !- Handle
=======
  {5d5f629e-22b3-40e3-998d-a4c7298cee53}, !- Handle
  3.0.1;                                  !- Version Identifier

OS:Schedule:Constant,
  {0b4a77b4-477e-41a9-b66c-92c50adebed7}, !- Handle
  Always On Discrete,                     !- Name
  {8cc80ee8-42d4-4621-9da7-fb3349b9655d}, !- Schedule Type Limits Name
  1;                                      !- Value

OS:ScheduleTypeLimits,
  {8cc80ee8-42d4-4621-9da7-fb3349b9655d}, !- Handle
>>>>>>> master
  Always On Discrete Limits,              !- Name
  0,                                      !- Lower Limit Value
  1,                                      !- Upper Limit Value
  Discrete,                               !- Numeric Type
  Availability;                           !- Unit Type

OS:Timestep,
  {b0fa043b-3e91-4705-b798-a26bbea47620}, !- Handle
  6;                                      !- Number of Timesteps per Hour

OS:Sizing:Parameters,
  {691bdd11-76ff-4c11-a048-35d600c51871}, !- Handle
  1.2,                                    !- Heating Sizing Factor
  1.2,                                    !- Cooling Sizing Factor
  6;                                      !- Timesteps in Averaging Window

OS:ConvergenceLimits,
  {245b0b16-c35d-49e5-9ba1-1fec8ce51ba5}, !- Handle
  1,                                      !- Minimum System Timestep {minutes}
  20;                                     !- Maximum HVAC Iterations

OS:Connection,
  {b742b2ef-79b6-4b4e-bc85-5c20c1c8300f}, !- Handle
  {15de7a4c-1724-4ba3-a1e6-a66b0ba90514}, !- Name
  ,                                       !- Source Object
  11,                                     !- Outlet Port
  ,                                       !- Target Object
  2;                                      !- Inlet Port

OS:Space,
  {39655c19-15b3-4081-92c2-4613ae84d8e6}, !- Handle
  Zone3 Bulk Storage,                     !- Name
  {aabbd8d8-a688-47dd-8dd9-7290bdad9599}, !- Space Type Name
  ,                                       !- Default Construction Set Name
  ,                                       !- Default Schedule Set Name
  0,                                      !- Direction of Relative North {deg}
  0,                                      !- X Origin {m}
  0,                                      !- Y Origin {m}
  0,                                      !- Z Origin {m}
  {db75d8b1-6332-4998-b7c2-ad46d4bbd08b}, !- Building Story Name
<<<<<<< HEAD
  {809244de-3328-46a0-aed1-3e3401245c2b}, !- Thermal Zone Name
=======
  {c5daf98f-99e3-4b52-81b6-d66c2a62e40e}, !- Thermal Zone Name
>>>>>>> master
  Yes;                                    !- Part of Total Floor Area

OS:Surface,
  {516ff702-eb03-4a25-9228-e1ad9dc5895c}, !- Handle
  Bulk Storage Roof,                      !- Name
  RoofCeiling,                            !- Surface Type
  ,                                       !- Construction Name
  {39655c19-15b3-4081-92c2-4613ae84d8e6}, !- Space Name
  Outdoors,                               !- Outside Boundary Condition
  ,                                       !- Outside Boundary Condition Object
  SunExposed,                             !- Sun Exposure
  WindExposed,                            !- Wind Exposure
  ,                                       !- View Factor to Ground
  ,                                       !- Number of Vertices
  45.7177703814647, 30.4785135876431, 8.53398380454007, !- X,Y,Z Vertex 1 {m}
  45.7177703814647, 100.579094839222, 8.53398380454007, !- X,Y,Z Vertex 2 {m}
  0, 100.579094839222, 8.53398380454007,  !- X,Y,Z Vertex 3 {m}
  0, 30.4785135876431, 8.53398380454007;  !- X,Y,Z Vertex 4 {m}

OS:SubSurface,
  {f7eb451a-be29-468e-8f97-c66b62ca8e90}, !- Handle
  Skylight_R1C1,                          !- Name
  Skylight,                               !- Sub Surface Type
  ,                                       !- Construction Name
  {516ff702-eb03-4a25-9228-e1ad9dc5895c}, !- Surface Name
  ,                                       !- Outside Boundary Condition Object
  ,                                       !- View Factor to Ground
  ,                                       !- Shading Control Name
  ,                                       !- Frame and Divider Name
  ,                                       !- Multiplier
  ,                                       !- Number of Vertices
  3.6576, 32.916914, 8.53398380454007,    !- X,Y,Z Vertex 1 {m}
  3.6576, 34.136114, 8.53398380454007,    !- X,Y,Z Vertex 2 {m}
  2.4384, 34.136114, 8.53398380454007,    !- X,Y,Z Vertex 3 {m}
  2.4384, 32.916914, 8.53398380454007;    !- X,Y,Z Vertex 4 {m}

OS:SubSurface,
  {57eac659-f23e-4c7a-a26c-800c01762680}, !- Handle
  Skylight_R1C2,                          !- Name
  Skylight,                               !- Sub Surface Type
  ,                                       !- Construction Name
  {516ff702-eb03-4a25-9228-e1ad9dc5895c}, !- Surface Name
  ,                                       !- Outside Boundary Condition Object
  ,                                       !- View Factor to Ground
  ,                                       !- Shading Control Name
  ,                                       !- Frame and Divider Name
  ,                                       !- Multiplier
  ,                                       !- Number of Vertices
  3.6576, 39.012914, 8.53398380454007,    !- X,Y,Z Vertex 1 {m}
  3.6576, 40.232114, 8.53398380454007,    !- X,Y,Z Vertex 2 {m}
  2.4384, 40.232114, 8.53398380454007,    !- X,Y,Z Vertex 3 {m}
  2.4384, 39.012914, 8.53398380454007;    !- X,Y,Z Vertex 4 {m}

OS:SubSurface,
  {845304c7-4fdf-4980-a668-460de0675243}, !- Handle
  Skylight_R1C3,                          !- Name
  Skylight,                               !- Sub Surface Type
  ,                                       !- Construction Name
  {516ff702-eb03-4a25-9228-e1ad9dc5895c}, !- Surface Name
  ,                                       !- Outside Boundary Condition Object
  ,                                       !- View Factor to Ground
  ,                                       !- Shading Control Name
  ,                                       !- Frame and Divider Name
  ,                                       !- Multiplier
  ,                                       !- Number of Vertices
  3.6576, 45.108914, 8.53398380454007,    !- X,Y,Z Vertex 1 {m}
  3.6576, 46.328114, 8.53398380454007,    !- X,Y,Z Vertex 2 {m}
  2.4384, 46.328114, 8.53398380454007,    !- X,Y,Z Vertex 3 {m}
  2.4384, 45.108914, 8.53398380454007;    !- X,Y,Z Vertex 4 {m}

OS:SubSurface,
  {36542de3-cae6-4f3a-8492-36979a7b0ed7}, !- Handle
  Skylight_R1C4,                          !- Name
  Skylight,                               !- Sub Surface Type
  ,                                       !- Construction Name
  {516ff702-eb03-4a25-9228-e1ad9dc5895c}, !- Surface Name
  ,                                       !- Outside Boundary Condition Object
  ,                                       !- View Factor to Ground
  ,                                       !- Shading Control Name
  ,                                       !- Frame and Divider Name
  ,                                       !- Multiplier
  ,                                       !- Number of Vertices
  3.6576, 51.204914, 8.53398380454007,    !- X,Y,Z Vertex 1 {m}
  3.6576, 52.424114, 8.53398380454007,    !- X,Y,Z Vertex 2 {m}
  2.4384, 52.424114, 8.53398380454007,    !- X,Y,Z Vertex 3 {m}
  2.4384, 51.204914, 8.53398380454007;    !- X,Y,Z Vertex 4 {m}

OS:SubSurface,
  {2f3aa6b9-56da-4055-9ecc-b78bcd52711d}, !- Handle
  Skylight_R1C5,                          !- Name
  Skylight,                               !- Sub Surface Type
  ,                                       !- Construction Name
  {516ff702-eb03-4a25-9228-e1ad9dc5895c}, !- Surface Name
  ,                                       !- Outside Boundary Condition Object
  ,                                       !- View Factor to Ground
  ,                                       !- Shading Control Name
  ,                                       !- Frame and Divider Name
  ,                                       !- Multiplier
  ,                                       !- Number of Vertices
  3.6576, 57.300914, 8.53398380454007,    !- X,Y,Z Vertex 1 {m}
  3.6576, 58.520114, 8.53398380454007,    !- X,Y,Z Vertex 2 {m}
  2.4384, 58.520114, 8.53398380454007,    !- X,Y,Z Vertex 3 {m}
  2.4384, 57.300914, 8.53398380454007;    !- X,Y,Z Vertex 4 {m}

OS:SubSurface,
  {677bf157-ca1d-47b0-9fde-9f2f1c0a9ba2}, !- Handle
  Skylight_R2C1,                          !- Name
  Skylight,                               !- Sub Surface Type
  ,                                       !- Construction Name
  {516ff702-eb03-4a25-9228-e1ad9dc5895c}, !- Surface Name
  ,                                       !- Outside Boundary Condition Object
  ,                                       !- View Factor to Ground
  ,                                       !- Shading Control Name
  ,                                       !- Frame and Divider Name
  ,                                       !- Multiplier
  ,                                       !- Number of Vertices
  9.7536, 32.916914, 8.53398380454007,    !- X,Y,Z Vertex 1 {m}
  9.7536, 34.136114, 8.53398380454007,    !- X,Y,Z Vertex 2 {m}
  8.5344, 34.136114, 8.53398380454007,    !- X,Y,Z Vertex 3 {m}
  8.5344, 32.916914, 8.53398380454007;    !- X,Y,Z Vertex 4 {m}

OS:SubSurface,
  {a8c4be0d-ff38-4b1d-bbbf-7e8e039c4e05}, !- Handle
  Skylight_R2C2,                          !- Name
  Skylight,                               !- Sub Surface Type
  ,                                       !- Construction Name
  {516ff702-eb03-4a25-9228-e1ad9dc5895c}, !- Surface Name
  ,                                       !- Outside Boundary Condition Object
  ,                                       !- View Factor to Ground
  ,                                       !- Shading Control Name
  ,                                       !- Frame and Divider Name
  ,                                       !- Multiplier
  ,                                       !- Number of Vertices
  9.7536, 39.012914, 8.53398380454007,    !- X,Y,Z Vertex 1 {m}
  9.7536, 40.232114, 8.53398380454007,    !- X,Y,Z Vertex 2 {m}
  8.5344, 40.232114, 8.53398380454007,    !- X,Y,Z Vertex 3 {m}
  8.5344, 39.012914, 8.53398380454007;    !- X,Y,Z Vertex 4 {m}

OS:SubSurface,
  {0810e707-bbf1-4fe8-88d4-753bbbf14e03}, !- Handle
  Skylight_R2C3,                          !- Name
  Skylight,                               !- Sub Surface Type
  ,                                       !- Construction Name
  {516ff702-eb03-4a25-9228-e1ad9dc5895c}, !- Surface Name
  ,                                       !- Outside Boundary Condition Object
  ,                                       !- View Factor to Ground
  ,                                       !- Shading Control Name
  ,                                       !- Frame and Divider Name
  ,                                       !- Multiplier
  ,                                       !- Number of Vertices
  9.7536, 45.108914, 8.53398380454007,    !- X,Y,Z Vertex 1 {m}
  9.7536, 46.328114, 8.53398380454007,    !- X,Y,Z Vertex 2 {m}
  8.5344, 46.328114, 8.53398380454007,    !- X,Y,Z Vertex 3 {m}
  8.5344, 45.108914, 8.53398380454007;    !- X,Y,Z Vertex 4 {m}

OS:SubSurface,
  {798d8a5c-d6b2-4394-a3ff-3b8293f2fa19}, !- Handle
  Skylight_R2C4,                          !- Name
  Skylight,                               !- Sub Surface Type
  ,                                       !- Construction Name
  {516ff702-eb03-4a25-9228-e1ad9dc5895c}, !- Surface Name
  ,                                       !- Outside Boundary Condition Object
  ,                                       !- View Factor to Ground
  ,                                       !- Shading Control Name
  ,                                       !- Frame and Divider Name
  ,                                       !- Multiplier
  ,                                       !- Number of Vertices
  9.7536, 51.204914, 8.53398380454007,    !- X,Y,Z Vertex 1 {m}
  9.7536, 52.424114, 8.53398380454007,    !- X,Y,Z Vertex 2 {m}
  8.5344, 52.424114, 8.53398380454007,    !- X,Y,Z Vertex 3 {m}
  8.5344, 51.204914, 8.53398380454007;    !- X,Y,Z Vertex 4 {m}

OS:SubSurface,
  {f1f4abb5-eb6f-4907-91a0-98957fb255cd}, !- Handle
  Skylight_R2C5,                          !- Name
  Skylight,                               !- Sub Surface Type
  ,                                       !- Construction Name
  {516ff702-eb03-4a25-9228-e1ad9dc5895c}, !- Surface Name
  ,                                       !- Outside Boundary Condition Object
  ,                                       !- View Factor to Ground
  ,                                       !- Shading Control Name
  ,                                       !- Frame and Divider Name
  ,                                       !- Multiplier
  ,                                       !- Number of Vertices
  9.7536, 57.300914, 8.53398380454007,    !- X,Y,Z Vertex 1 {m}
  9.7536, 58.520114, 8.53398380454007,    !- X,Y,Z Vertex 2 {m}
  8.5344, 58.520114, 8.53398380454007,    !- X,Y,Z Vertex 3 {m}
  8.5344, 57.300914, 8.53398380454007;    !- X,Y,Z Vertex 4 {m}

OS:Surface,
  {e7c4e556-9445-43b4-bfcc-f9fc21f24f21}, !- Handle
  Fine Storage Left Wall,                 !- Name
  Wall,                                   !- Surface Type
  ,                                       !- Construction Name
  {cdd6a95f-f907-4c0e-817d-962525d358d0}, !- Space Name
  Outdoors,                               !- Outside Boundary Condition
  ,                                       !- Outside Boundary Condition Object
  SunExposed,                             !- Sun Exposure
  WindExposed,                            !- Wind Exposure
  ,                                       !- View Factor to Ground
  ,                                       !- Number of Vertices
  0, 30.4785135876431, 8.53398380454007,  !- X,Y,Z Vertex 1 {m}
  0, 30.4785135876431, 0,                 !- X,Y,Z Vertex 2 {m}
  0, 9.14355407629293, 0,                 !- X,Y,Z Vertex 3 {m}
  0, 9.14355407629293, 8.53398380454007;  !- X,Y,Z Vertex 4 {m}

OS:Connection,
  {dc04fefb-3f18-45be-8f68-9d2cd3eb4a21}, !- Handle
  {e66b1d83-cc39-44fb-8764-30d98d02c75a}, !- Name
  ,                                       !- Source Object
  11,                                     !- Outlet Port
  ,                                       !- Target Object
  2;                                      !- Inlet Port

OS:Space,
  {cdd6a95f-f907-4c0e-817d-962525d358d0}, !- Handle
  Zone2 Fine Storage,                     !- Name
  {fa494797-3b47-43b7-8d83-65371f4bbb13}, !- Space Type Name
  ,                                       !- Default Construction Set Name
  ,                                       !- Default Schedule Set Name
  0,                                      !- Direction of Relative North {deg}
  0,                                      !- X Origin {m}
  0,                                      !- Y Origin {m}
  0,                                      !- Z Origin {m}
  {db75d8b1-6332-4998-b7c2-ad46d4bbd08b}, !- Building Story Name
<<<<<<< HEAD
  {839c540c-fd95-463b-ad8b-53ae4b286ec5}, !- Thermal Zone Name
=======
  {6b767e61-fca6-4b38-81a7-325c3d3d482a}, !- Thermal Zone Name
>>>>>>> master
  Yes;                                    !- Part of Total Floor Area

OS:Surface,
  {b8444fba-ff4e-4e81-b369-e9f3efc4a2d6}, !- Handle
  Office Roof,                            !- Name
  RoofCeiling,                            !- Surface Type
  ,                                       !- Construction Name
  {12c3d4a0-20ec-4e1f-8040-e70cdfba4a69}, !- Space Name
  Surface,                                !- Outside Boundary Condition
  {a273ffc4-632f-4b89-9d6d-f94185f45049}, !- Outside Boundary Condition Object
  NoSun,                                  !- Sun Exposure
  NoWind,                                 !- Wind Exposure
  ,                                       !- View Factor to Ground
  ,                                       !- Number of Vertices
  25.9067365494966, 0, 4.26699190227003,  !- X,Y,Z Vertex 1 {m}
  25.9067365494966, 9.14355407629293, 4.26699190227003, !- X,Y,Z Vertex 2 {m}
  0, 9.14355407629293, 4.26699190227003,  !- X,Y,Z Vertex 3 {m}
  0, 0, 4.26699190227003;                 !- X,Y,Z Vertex 4 {m}

OS:Connection,
  {3386e9fe-e830-491d-a1bc-dbb0ba0af916}, !- Handle
  {20ab44d7-01dc-49cd-b623-cd8f0a86b916}, !- Name
  ,                                       !- Source Object
  11,                                     !- Outlet Port
  ,                                       !- Target Object
  2;                                      !- Inlet Port

OS:Space,
  {12c3d4a0-20ec-4e1f-8040-e70cdfba4a69}, !- Handle
  Zone1 Office,                           !- Name
  {626ccb3f-df17-4651-ba00-0696cb5a3ca7}, !- Space Type Name
  ,                                       !- Default Construction Set Name
  ,                                       !- Default Schedule Set Name
  0,                                      !- Direction of Relative North {deg}
  0,                                      !- X Origin {m}
  0,                                      !- Y Origin {m}
  0,                                      !- Z Origin {m}
  {db75d8b1-6332-4998-b7c2-ad46d4bbd08b}, !- Building Story Name
<<<<<<< HEAD
  {a68a11cb-acc4-4881-b0d6-ffb76ed02dd8}, !- Thermal Zone Name
=======
  {8dd869b1-41c3-4b60-bfec-f10f6f8a9b1a}, !- Thermal Zone Name
>>>>>>> master
  Yes;                                    !- Part of Total Floor Area

OS:Surface,
  {a273ffc4-632f-4b89-9d6d-f94185f45049}, !- Handle
  Office Roof Reversed,                   !- Name
  Floor,                                  !- Surface Type
  ,                                       !- Construction Name
  {cdd6a95f-f907-4c0e-817d-962525d358d0}, !- Space Name
  Surface,                                !- Outside Boundary Condition
  {b8444fba-ff4e-4e81-b369-e9f3efc4a2d6}, !- Outside Boundary Condition Object
  NoSun,                                  !- Sun Exposure
  NoWind,                                 !- Wind Exposure
  ,                                       !- View Factor to Ground
  ,                                       !- Number of Vertices
  0, 0, 4.26699190227003,                 !- X,Y,Z Vertex 1 {m}
  0, 9.14355407629293, 4.26699190227003,  !- X,Y,Z Vertex 2 {m}
  25.9067365494966, 9.14355407629293, 4.26699190227003, !- X,Y,Z Vertex 3 {m}
  25.9067365494966, 0, 4.26699190227003;  !- X,Y,Z Vertex 4 {m}

OS:Surface,
  {b8b06532-b20c-4b27-b353-fb685ea15ba8}, !- Handle
  Bulk Storage Rear Wall,                 !- Name
  Wall,                                   !- Surface Type
  ,                                       !- Construction Name
  {39655c19-15b3-4081-92c2-4613ae84d8e6}, !- Space Name
  Outdoors,                               !- Outside Boundary Condition
  ,                                       !- Outside Boundary Condition Object
  SunExposed,                             !- Sun Exposure
  WindExposed,                            !- Wind Exposure
  ,                                       !- View Factor to Ground
  ,                                       !- Number of Vertices
  45.7177703814647, 100.579094839222, 8.53398380454007, !- X,Y,Z Vertex 1 {m}
  45.7177703814647, 100.579094839222, 0,  !- X,Y,Z Vertex 2 {m}
  0, 100.579094839222, 0,                 !- X,Y,Z Vertex 3 {m}
  0, 100.579094839222, 8.53398380454007;  !- X,Y,Z Vertex 4 {m}

OS:Surface,
  {e86312f3-df9c-4a72-8bf5-276fd9968053}, !- Handle
  Bulk Storage Floor,                     !- Name
  Floor,                                  !- Surface Type
<<<<<<< HEAD
  {64d25f75-116a-4745-a377-688728e0d2c4}, !- Construction Name
=======
  {39bd4552-2526-44d4-9732-419c170355ee}, !- Construction Name
>>>>>>> master
  {39655c19-15b3-4081-92c2-4613ae84d8e6}, !- Space Name
  GroundFCfactorMethod,                   !- Outside Boundary Condition
  ,                                       !- Outside Boundary Condition Object
  NoSun,                                  !- Sun Exposure
  NoWind,                                 !- Wind Exposure
  ,                                       !- View Factor to Ground
  ,                                       !- Number of Vertices
  45.7177703814647, 100.579094839222, 0,  !- X,Y,Z Vertex 1 {m}
  45.7177703814647, 30.4785135876431, 0,  !- X,Y,Z Vertex 2 {m}
  0, 30.4785135876431, 0,                 !- X,Y,Z Vertex 3 {m}
  0, 100.579094839222, 0;                 !- X,Y,Z Vertex 4 {m}

OS:Surface,
  {2eb36d53-8956-4573-9d42-f3de2486a693}, !- Handle
  Bulk Storage Left Wall,                 !- Name
  Wall,                                   !- Surface Type
  ,                                       !- Construction Name
  {39655c19-15b3-4081-92c2-4613ae84d8e6}, !- Space Name
  Outdoors,                               !- Outside Boundary Condition
  ,                                       !- Outside Boundary Condition Object
  SunExposed,                             !- Sun Exposure
  WindExposed,                            !- Wind Exposure
  ,                                       !- View Factor to Ground
  ,                                       !- Number of Vertices
  0, 100.579094839222, 8.53398380454007,  !- X,Y,Z Vertex 1 {m}
  0, 100.579094839222, 0,                 !- X,Y,Z Vertex 2 {m}
  0, 30.4785135876431, 0,                 !- X,Y,Z Vertex 3 {m}
  0, 30.4785135876431, 8.53398380454007;  !- X,Y,Z Vertex 4 {m}

OS:Surface,
  {eb38baf8-4819-4f38-99d7-de17082804a6}, !- Handle
  Fine Storage Floor,                     !- Name
  Floor,                                  !- Surface Type
<<<<<<< HEAD
  {d0573120-1be7-4ce6-ba06-133157f6c9a8}, !- Construction Name
=======
  {0f2a7209-7b31-48c0-ad58-6bb85b52c5a7}, !- Construction Name
>>>>>>> master
  {cdd6a95f-f907-4c0e-817d-962525d358d0}, !- Space Name
  GroundFCfactorMethod,                   !- Outside Boundary Condition
  ,                                       !- Outside Boundary Condition Object
  NoSun,                                  !- Sun Exposure
  NoWind,                                 !- Wind Exposure
  ,                                       !- View Factor to Ground
  ,                                       !- Number of Vertices
  45.7177703814647, 30.4785135876431, 0,  !- X,Y,Z Vertex 1 {m}
  45.7177703814647, 0, 0,                 !- X,Y,Z Vertex 2 {m}
  25.9067365494966, 0, 0,                 !- X,Y,Z Vertex 3 {m}
  25.9067365494966, 9.14355407629293, 0,  !- X,Y,Z Vertex 4 {m}
  0, 9.14355407629293, 0,                 !- X,Y,Z Vertex 5 {m}
  0, 30.4785135876431, 0;                 !- X,Y,Z Vertex 6 {m}

OS:Surface,
  {a0ba0fa9-aa51-4fbe-bdcc-bf0a22e397dd}, !- Handle
  Fine Storage Right Wall,                !- Name
  Wall,                                   !- Surface Type
  ,                                       !- Construction Name
  {cdd6a95f-f907-4c0e-817d-962525d358d0}, !- Space Name
  Outdoors,                               !- Outside Boundary Condition
  ,                                       !- Outside Boundary Condition Object
  SunExposed,                             !- Sun Exposure
  WindExposed,                            !- Wind Exposure
  ,                                       !- View Factor to Ground
  ,                                       !- Number of Vertices
  45.7177703814647, 0, 8.53398380454007,  !- X,Y,Z Vertex 1 {m}
  45.7177703814647, 0, 0,                 !- X,Y,Z Vertex 2 {m}
  45.7177703814647, 30.4785135876431, 0,  !- X,Y,Z Vertex 3 {m}
  45.7177703814647, 30.4785135876431, 8.53398380454007; !- X,Y,Z Vertex 4 {m}

OS:Surface,
  {dcc10c35-212a-4ba7-8909-e38fa0c8d3e8}, !- Handle
  Fine Storage Roof,                      !- Name
  RoofCeiling,                            !- Surface Type
  ,                                       !- Construction Name
  {cdd6a95f-f907-4c0e-817d-962525d358d0}, !- Space Name
  Outdoors,                               !- Outside Boundary Condition
  ,                                       !- Outside Boundary Condition Object
  SunExposed,                             !- Sun Exposure
  WindExposed,                            !- Wind Exposure
  ,                                       !- View Factor to Ground
  ,                                       !- Number of Vertices
  45.7177703814647, 0, 8.53398380454007,  !- X,Y,Z Vertex 1 {m}
  45.7177703814647, 30.4785135876431, 8.53398380454007, !- X,Y,Z Vertex 2 {m}
  0, 30.4785135876431, 8.53398380454007,  !- X,Y,Z Vertex 3 {m}
  0, 0, 8.53398380454007;                 !- X,Y,Z Vertex 4 {m}

OS:SubSurface,
  {1b2bce67-d0d6-4a6e-9c3c-4796cf73b0e2}, !- Handle
  Office Left Wall Window1,               !- Name
  FixedWindow,                            !- Sub Surface Type
  ,                                       !- Construction Name
  {af7ffab5-cb7d-4793-a68a-918ca67f7479}, !- Surface Name
  ,                                       !- Outside Boundary Condition Object
  ,                                       !- View Factor to Ground
  ,                                       !- Shading Control Name
  ,                                       !- Frame and Divider Name
  1,                                      !- Multiplier
  ,                                       !- Number of Vertices
  0, 7.51904930207155, 2.43929602151392,  !- X,Y,Z Vertex 1 {m}
  0, 7.51904930207155, 0.914355407629293, !- X,Y,Z Vertex 2 {m}
  0, 5.38555335093654, 0.914355407629293, !- X,Y,Z Vertex 3 {m}
  0, 5.38555335093654, 2.43929602151392;  !- X,Y,Z Vertex 4 {m}

OS:Surface,
  {af7ffab5-cb7d-4793-a68a-918ca67f7479}, !- Handle
  Office Left Wall,                       !- Name
  Wall,                                   !- Surface Type
  ,                                       !- Construction Name
  {12c3d4a0-20ec-4e1f-8040-e70cdfba4a69}, !- Space Name
  Outdoors,                               !- Outside Boundary Condition
  ,                                       !- Outside Boundary Condition Object
  SunExposed,                             !- Sun Exposure
  WindExposed,                            !- Wind Exposure
  ,                                       !- View Factor to Ground
  ,                                       !- Number of Vertices
  0, 9.14355407629293, 4.26699190227003,  !- X,Y,Z Vertex 1 {m}
  0, 9.14355407629293, 0,                 !- X,Y,Z Vertex 2 {m}
  0, 0, 0,                                !- X,Y,Z Vertex 3 {m}
  0, 0, 4.26699190227003;                 !- X,Y,Z Vertex 4 {m}

OS:Surface,
  {a966bae9-9301-4492-ae85-a3416cb9da09}, !- Handle
  Office Floor,                           !- Name
  Floor,                                  !- Surface Type
<<<<<<< HEAD
  {c6764df4-458f-4e86-acf0-f70a07137342}, !- Construction Name
=======
  {e9481fea-2b1c-48a8-a516-015975f51c16}, !- Construction Name
>>>>>>> master
  {12c3d4a0-20ec-4e1f-8040-e70cdfba4a69}, !- Space Name
  GroundFCfactorMethod,                   !- Outside Boundary Condition
  ,                                       !- Outside Boundary Condition Object
  NoSun,                                  !- Sun Exposure
  NoWind,                                 !- Wind Exposure
  ,                                       !- View Factor to Ground
  ,                                       !- Number of Vertices
  25.9067365494966, 9.14355407629293, 0,  !- X,Y,Z Vertex 1 {m}
  25.9067365494966, 0, 0,                 !- X,Y,Z Vertex 2 {m}
  0, 0, 0,                                !- X,Y,Z Vertex 3 {m}
  0, 9.14355407629293, 0;                 !- X,Y,Z Vertex 4 {m}

OS:Surface,
  {7f4aebb1-9044-44cb-91ee-e1a559b436a0}, !- Handle
  Office Right Wall,                      !- Name
  Wall,                                   !- Surface Type
  ,                                       !- Construction Name
  {12c3d4a0-20ec-4e1f-8040-e70cdfba4a69}, !- Space Name
  Surface,                                !- Outside Boundary Condition
  {12dbc2fb-3517-42f9-9f00-f6147aaade5b}, !- Outside Boundary Condition Object
  NoSun,                                  !- Sun Exposure
  NoWind,                                 !- Wind Exposure
  ,                                       !- View Factor to Ground
  ,                                       !- Number of Vertices
  25.9067365494966, 0, 4.26699190227003,  !- X,Y,Z Vertex 1 {m}
  25.9067365494966, 0, 0,                 !- X,Y,Z Vertex 2 {m}
  25.9067365494966, 9.14355407629293, 0,  !- X,Y,Z Vertex 3 {m}
  25.9067365494966, 9.14355407629293, 4.26699190227003; !- X,Y,Z Vertex 4 {m}

OS:Surface,
  {12dbc2fb-3517-42f9-9f00-f6147aaade5b}, !- Handle
  Office Right Wall Reversed,             !- Name
  Wall,                                   !- Surface Type
  ,                                       !- Construction Name
  {cdd6a95f-f907-4c0e-817d-962525d358d0}, !- Space Name
  Surface,                                !- Outside Boundary Condition
  {7f4aebb1-9044-44cb-91ee-e1a559b436a0}, !- Outside Boundary Condition Object
  NoSun,                                  !- Sun Exposure
  NoWind,                                 !- Wind Exposure
  ,                                       !- View Factor to Ground
  ,                                       !- Number of Vertices
  25.9067365494966, 9.14355407629293, 4.26699190227003, !- X,Y,Z Vertex 1 {m}
  25.9067365494966, 9.14355407629293, 0,  !- X,Y,Z Vertex 2 {m}
  25.9067365494966, 0, 0,                 !- X,Y,Z Vertex 3 {m}
  25.9067365494966, 0, 4.26699190227003;  !- X,Y,Z Vertex 4 {m}

OS:Surface,
  {a722f50f-fda4-4b2c-843f-44ea72a832c9}, !- Handle
  Office Front Wall,                      !- Name