
OS:Version,
  {86fe5f53-e3f3-48a1-85f2-f8529140cd5f}, !- Handle
  0.10.0;                                 !- Version Identifier

OS:ScheduleTypeLimits,
  {e077068a-1cf4-458e-bf5e-8553ef78973b}, !- Handle
  Fractional,                             !- Name
  0,                                      !- Lower Limit Value {BasedOnField A4}
  1,                                      !- Upper Limit Value {BasedOnField A4}
  Continuous;                             !- Numeric Type

OS:ScheduleTypeLimits,
  {1c6172c8-f884-4ab3-b3f9-0b97c70a6ccf}, !- Handle
  OnOff,                                  !- Name
  0,                                      !- Lower Limit Value {BasedOnField A4}
  1,                                      !- Upper Limit Value {BasedOnField A4}
  Discrete,                               !- Numeric Type
  Availability;                           !- Unit Type

OS:DefaultScheduleSet,
  {a8708e94-d584-4281-a127-af18bf20589a}, !- Handle
  Office Space Type Default Sch Set,      !- Name
  {874161e3-24dc-490f-bdf2-2ee37e908ce9}, !- Hours of Operation Schedule Name
  {0d66d54f-f0d9-4ba2-88c3-438801b742bb}, !- Number of People Schedule Name
  ,                                       !- People Activity Level Schedule Name
  {6cfdb58a-37c4-49be-b20c-1fe24cdada51}, !- Lighting Schedule Name
  {6cfdb58a-37c4-49be-b20c-1fe24cdada51}, !- Electric Equipment Schedule Name
  ,                                       !- Gas Equipment Schedule Name
  {fa89cd28-1906-4459-8c04-513cf451c398}, !- Hot Water Equipment Schedule Name
  ,                                       !- Infiltration Schedule Name
  ,                                       !- Steam Equipment Schedule Name
  {d80b7a0a-9d2e-406d-a257-7d4bdbdca7e5}; !- Other Equipment Schedule Name

OS:Schedule:Ruleset,
  {0d66d54f-f0d9-4ba2-88c3-438801b742bb}, !- Handle
  Office Occ Sch,                         !- Name
  {d36f8225-764f-45e0-88ab-ff1b41bf1fd2}, !- Schedule Type Limits Name
  {0c2e4a4a-3491-4c6f-a3c9-b469700f81f5}, !- Default Day Schedule Name
  {0e89b4f2-9eae-4e7f-89e9-140a78a61e1c}, !- Summer Design Day Schedule Name
  {9a441bd2-e1eb-4854-bf4b-b2e9d552d042}; !- Winter Design Day Schedule Name

OS:Schedule:Day,
  {0c2e4a4a-3491-4c6f-a3c9-b469700f81f5}, !- Handle
  Office Occ Sch WkDay,                   !- Name
  {d36f8225-764f-45e0-88ab-ff1b41bf1fd2}, !- Schedule Type Limits Name
  ,                                       !- Interpolate to Timestep
  6,                                      !- Hour 1
  0,                                      !- Minute 1
  0,                                      !- Value Until Time 1
  7,                                      !- Hour 2
  0,                                      !- Minute 2
  0.1,                                    !- Value Until Time 2
  8,                                      !- Hour 3
  0,                                      !- Minute 3
  0.2,                                    !- Value Until Time 3
  12,                                     !- Hour 4
  0,                                      !- Minute 4
  0.95,                                   !- Value Until Time 4
  13,                                     !- Hour 5
  0,                                      !- Minute 5
  0.5,                                    !- Value Until Time 5
  17,                                     !- Hour 6
  0,                                      !- Minute 6
  0.95,                                   !- Value Until Time 6
  18,                                     !- Hour 7
  0,                                      !- Minute 7
  0.3,                                    !- Value Until Time 7
  22,                                     !- Hour 8
  0,                                      !- Minute 8
  0.1,                                    !- Value Until Time 8
  24,                                     !- Hour 9
  0,                                      !- Minute 9
  0.05;                                   !- Value Until Time 9

OS:ScheduleTypeLimits,
  {d36f8225-764f-45e0-88ab-ff1b41bf1fd2}, !- Handle
  Fractional 1,                           !- Name
  0,                                      !- Lower Limit Value {BasedOnField A4}
  1,                                      !- Upper Limit Value {BasedOnField A4}
  Continuous;                             !- Numeric Type

OS:Schedule:Day,
  {80eef59e-ad80-4a3e-97fa-2eeb056b04e0}, !- Handle
  Schedule Day 2,                         !- Name
  ,                                       !- Schedule Type Limits Name
  ,                                       !- Interpolate to Timestep
  24,                                     !- Hour 1
  0,                                      !- Minute 1
  0;                                      !- Value Until Time 1

OS:Schedule:Day,
  {9a441bd2-e1eb-4854-bf4b-b2e9d552d042}, !- Handle
  Office Occ Sch Winter Dsn Day,          !- Name
  {d36f8225-764f-45e0-88ab-ff1b41bf1fd2}, !- Schedule Type Limits Name
  ,                                       !- Interpolate to Timestep
  6,                                      !- Hour 1
  0,                                      !- Minute 1
  0,                                      !- Value Until Time 1
  18,                                     !- Hour 2
  0,                                      !- Minute 2
  0.05,                                   !- Value Until Time 2
  24,                                     !- Hour 3
  0,                                      !- Minute 3
  0;                                      !- Value Until Time 3

OS:Schedule:Day,
  {52f42673-da4d-4783-b567-a1abf06f5191}, !- Handle
  Schedule Day 3,                         !- Name
  ,                                       !- Schedule Type Limits Name
  ,                                       !- Interpolate to Timestep
  24,                                     !- Hour 1
  0,                                      !- Minute 1
  0;                                      !- Value Until Time 1

OS:Schedule:Day,
  {0e89b4f2-9eae-4e7f-89e9-140a78a61e1c}, !- Handle
  Office Occ Sch Summer Dsn Day,          !- Name
  {d36f8225-764f-45e0-88ab-ff1b41bf1fd2}, !- Schedule Type Limits Name
  ,                                       !- Interpolate to Timestep
  6,                                      !- Hour 1
  0,                                      !- Minute 1
  0,                                      !- Value Until Time 1
  8,                                      !- Hour 2
  0,                                      !- Minute 2
  0.1,                                    !- Value Until Time 2
  12,                                     !- Hour 3
  0,                                      !- Minute 3
  0.3,                                    !- Value Until Time 3
  17,                                     !- Hour 4
  0,                                      !- Minute 4
  0.1,                                    !- Value Until Time 4
  19,                                     !- Hour 5
  0,                                      !- Minute 5
  0.05,                                   !- Value Until Time 5
  24,                                     !- Hour 6
  0,                                      !- Minute 6
  0;                                      !- Value Until Time 6

OS:Schedule:Rule,
  {6d123252-2489-4bac-be18-cb2015a1a13d}, !- Handle
  Office Occ Sch Sat Rule,                !- Name
  {0d66d54f-f0d9-4ba2-88c3-438801b742bb}, !- Schedule Ruleset Name
  1,                                      !- Rule Order
  {7557c9db-34a7-4e5d-a9f9-fa130b547fff}, !- Day Schedule Name
  ,                                       !- Apply Sunday
  ,                                       !- Apply Monday
  ,                                       !- Apply Tuesday
  ,                                       !- Apply Wednesday
  ,                                       !- Apply Thursday
  ,                                       !- Apply Friday
  Yes;                                    !- Apply Saturday

OS:Schedule:Day,
  {7557c9db-34a7-4e5d-a9f9-fa130b547fff}, !- Handle
  Office Occ Sch Sat,                     !- Name
  {d36f8225-764f-45e0-88ab-ff1b41bf1fd2}, !- Schedule Type Limits Name
  ,                                       !- Interpolate to Timestep
  6,                                      !- Hour 1
  0,                                      !- Minute 1
  0,                                      !- Value Until Time 1
  8,                                      !- Hour 2
  0,                                      !- Minute 2
  0.1,                                    !- Value Until Time 2
  12,                                     !- Hour 3
  0,                                      !- Minute 3
  0.3,                                    !- Value Until Time 3
  17,                                     !- Hour 4
  0,                                      !- Minute 4
  0.1,                                    !- Value Until Time 4
  19,                                     !- Hour 5
  0,                                      !- Minute 5
  0.05,                                   !- Value Until Time 5
  24,                                     !- Hour 6
  0,                                      !- Minute 6
  0;                                      !- Value Until Time 6

OS:Schedule:Rule,
  {d289f874-13af-4626-af8a-571a13e714e2}, !- Handle
  Office Occ Sch Sun Rule,                !- Name
  {0d66d54f-f0d9-4ba2-88c3-438801b742bb}, !- Schedule Ruleset Name
  0,                                      !- Rule Order
  {e7b1e9f9-b3bf-4767-bee4-54e24dcceeb1}, !- Day Schedule Name
  Yes;                                    !- Apply Sunday

OS:Schedule:Day,
  {e7b1e9f9-b3bf-4767-bee4-54e24dcceeb1}, !- Handle
  Office Occ Sch Sun,                     !- Name
  {d36f8225-764f-45e0-88ab-ff1b41bf1fd2}, !- Schedule Type Limits Name
  ,                                       !- Interpolate to Timestep
  6,                                      !- Hour 1
  0,                                      !- Minute 1
  0,                                      !- Value Until Time 1
  8,                                      !- Hour 2
  0,                                      !- Minute 2
  0.1,                                    !- Value Until Time 2
  12,                                     !- Hour 3
  0,                                      !- Minute 3
  0.3,                                    !- Value Until Time 3
  17,                                     !- Hour 4
  0,                                      !- Minute 4
  0.1,                                    !- Value Until Time 4
  19,                                     !- Hour 5
  0,                                      !- Minute 5
  0.05,                                   !- Value Until Time 5
  24,                                     !- Hour 6
  0,                                      !- Minute 6
  0;                                      !- Value Until Time 6

OS:Schedule:Ruleset,
  {6cfdb58a-37c4-49be-b20c-1fe24cdada51}, !- Handle
  Office LtAndPlg Sch,                    !- Name
  {c310520a-621f-49e5-873c-b41310887652}, !- Schedule Type Limits Name
  {95d07c56-6f1d-441b-b853-59eb3cabb81d}, !- Default Day Schedule Name
  {55c6c3c5-d2b6-400d-b533-1c03d4f8146c}, !- Summer Design Day Schedule Name
  {a0c314fe-3a88-4ddf-8361-2bdb64428860}; !- Winter Design Day Schedule Name

OS:Schedule:Day,
  {95d07c56-6f1d-441b-b853-59eb3cabb81d}, !- Handle
  Office LtAndPlg Sch WkDay,              !- Name
  {c310520a-621f-49e5-873c-b41310887652}, !- Schedule Type Limits Name
  ,                                       !- Interpolate to Timestep
  5,                                      !- Hour 1
  0,                                      !- Minute 1
  0.05,                                   !- Value Until Time 1
  7,                                      !- Hour 2
  0,                                      !- Minute 2
  0.1,                                    !- Value Until Time 2
  8,                                      !- Hour 3
  0,                                      !- Minute 3
  0.3,                                    !- Value Until Time 3
  12,                                     !- Hour 4
  0,                                      !- Minute 4
  0.9,                                    !- Value Until Time 4
  13,                                     !- Hour 5
  0,                                      !- Minute 5
  0.8,                                    !- Value Until Time 5
  17,                                     !- Hour 6
  0,                                      !- Minute 6
  0.9,                                    !- Value Until Time 6
  18,                                     !- Hour 7
  0,                                      !- Minute 7
  0.5,                                    !- Value Until Time 7
  20,                                     !- Hour 8
  0,                                      !- Minute 8
  0.3,                                    !- Value Until Time 8
  22,                                     !- Hour 9
  0,                                      !- Minute 9
  0.2,                                    !- Value Until Time 9
  23,                                     !- Hour 10
  0,                                      !- Minute 10
  0.1,                                    !- Value Until Time 10
  24,                                     !- Hour 11
  0,                                      !- Minute 11
  0.05;                                   !- Value Until Time 11

OS:ScheduleTypeLimits,
  {c310520a-621f-49e5-873c-b41310887652}, !- Handle
  Fractional 2,                           !- Name
  0,                                      !- Lower Limit Value {BasedOnField A4}
  1,                                      !- Upper Limit Value {BasedOnField A4}
  Continuous;                             !- Numeric Type

OS:Schedule:Day,
  {47a2acd4-99e7-4c75-bafd-d1f653c8e4ac}, !- Handle
  Schedule Day 4,                         !- Name
  ,                                       !- Schedule Type Limits Name
  ,                                       !- Interpolate to Timestep
  24,                                     !- Hour 1
  0,                                      !- Minute 1
  0;                                      !- Value Until Time 1

OS:Schedule:Day,
  {a0c314fe-3a88-4ddf-8361-2bdb64428860}, !- Handle
  Office LtAndPlg Sch Winter Dsn Day,     !- Name
  {c310520a-621f-49e5-873c-b41310887652}, !- Schedule Type Limits Name
  ,                                       !- Interpolate to Timestep
  24,                                     !- Hour 1
  0,                                      !- Minute 1
  0.05;                                   !- Value Until Time 1

OS:Schedule:Day,
  {d25d8f28-bd0b-4897-92b1-2204d821dc74}, !- Handle
  Schedule Day 5,                         !- Name
  ,                                       !- Schedule Type Limits Name
  ,                                       !- Interpolate to Timestep
  24,                                     !- Hour 1
  0,                                      !- Minute 1
  0;                                      !- Value Until Time 1

OS:Schedule:Day,
  {55c6c3c5-d2b6-400d-b533-1c03d4f8146c}, !- Handle
  Office LtAndPlg Sch Summer Dsn Day,     !- Name
  {c310520a-621f-49e5-873c-b41310887652}, !- Schedule Type Limits Name
  ,                                       !- Interpolate to Timestep
  6,                                      !- Hour 1
  0,                                      !- Minute 1
  0.05,                                   !- Value Until Time 1
  8,                                      !- Hour 2
  0,                                      !- Minute 2
  0.1,                                    !- Value Until Time 2
  12,                                     !- Hour 3
  0,                                      !- Minute 3
  0.3,                                    !- Value Until Time 3
  17,                                     !- Hour 4
  0,                                      !- Minute 4
  0.15,                                   !- Value Until Time 4
  24,                                     !- Hour 5
  0,                                      !- Minute 5
  0.05;                                   !- Value Until Time 5

OS:Schedule:Rule,
  {bc91af7c-c3dd-4ab0-a5b8-490af8f103ed}, !- Handle
  Office LtAndPlg Sch Sat Rule,           !- Name
  {6cfdb58a-37c4-49be-b20c-1fe24cdada51}, !- Schedule Ruleset Name
  1,                                      !- Rule Order
  {467ff0be-69d0-44ea-ad9b-680b9f47f0f0}, !- Day Schedule Name
  ,                                       !- Apply Sunday
  ,                                       !- Apply Monday
  ,                                       !- Apply Tuesday
  ,                                       !- Apply Wednesday
  ,                                       !- Apply Thursday
  ,                                       !- Apply Friday
  Yes;                                    !- Apply Saturday

OS:Schedule:Day,
  {467ff0be-69d0-44ea-ad9b-680b9f47f0f0}, !- Handle
  Office LtAndPlg Sch Sat,                !- Name
  {c310520a-621f-49e5-873c-b41310887652}, !- Schedule Type Limits Name
  ,                                       !- Interpolate to Timestep
  6,                                      !- Hour 1
  0,                                      !- Minute 1
  0.05,                                   !- Value Until Time 1
  8,                                      !- Hour 2
  0,                                      !- Minute 2
  0.1,                                    !- Value Until Time 2
  12,                                     !- Hour 3
  0,                                      !- Minute 3
  0.3,                                    !- Value Until Time 3
  17,                                     !- Hour 4
  0,                                      !- Minute 4
  0.15,                                   !- Value Until Time 4
  24,                                     !- Hour 5
  0,                                      !- Minute 5
  0.05;                                   !- Value Until Time 5

OS:Schedule:Rule,
  {e87a11de-2d23-4350-b108-851e0a1e6645}, !- Handle
  Office LtAndPlg Sch Sun Rule,           !- Name
  {6cfdb58a-37c4-49be-b20c-1fe24cdada51}, !- Schedule Ruleset Name
  0,                                      !- Rule Order
  {48928d28-93d7-4ab0-92bd-df229950cc7a}, !- Day Schedule Name
  Yes;                                    !- Apply Sunday

OS:Schedule:Day,
  {48928d28-93d7-4ab0-92bd-df229950cc7a}, !- Handle
  Office LtAndPlg Sch Sun,                !- Name
  {c310520a-621f-49e5-873c-b41310887652}, !- Schedule Type Limits Name
  ,                                       !- Interpolate to Timestep
  6,                                      !- Hour 1
  0,                                      !- Minute 1
  0.05,                                   !- Value Until Time 1
  8,                                      !- Hour 2
  0,                                      !- Minute 2
  0.1,                                    !- Value Until Time 2
  12,                                     !- Hour 3
  0,                                      !- Minute 3
  0.3,                                    !- Value Until Time 3
  17,                                     !- Hour 4
  0,                                      !- Minute 4
  0.15,                                   !- Value Until Time 4
  24,                                     !- Hour 5
  0,                                      !- Minute 5
  0.05;                                   !- Value Until Time 5

OS:Schedule:Ruleset,
  {874161e3-24dc-490f-bdf2-2ee37e908ce9}, !- Handle
  Office HVAC Sch,                        !- Name
  {de77ae36-3d19-4d83-b3d0-e0d9af762002}, !- Schedule Type Limits Name
  {fd9d810b-65eb-4c45-9d6f-4e12df8f1813}, !- Default Day Schedule Name
  {85f992a3-3e06-4612-aca9-e82640a14a07}, !- Summer Design Day Schedule Name
  {2b816133-b668-4fc0-ae0b-f8a01f5237d2}; !- Winter Design Day Schedule Name

OS:Schedule:Day,
  {fd9d810b-65eb-4c45-9d6f-4e12df8f1813}, !- Handle
  Office HVAC Sch WkDay,                  !- Name
  {de77ae36-3d19-4d83-b3d0-e0d9af762002}, !- Schedule Type Limits Name
  ,                                       !- Interpolate to Timestep
  6,                                      !- Hour 1
  0,                                      !- Minute 1
  0,                                      !- Value Until Time 1
  22,                                     !- Hour 2
  0,                                      !- Minute 2
  1,                                      !- Value Until Time 2
  24,                                     !- Hour 3
  0,                                      !- Minute 3
  0;                                      !- Value Until Time 3

OS:ScheduleTypeLimits,
  {de77ae36-3d19-4d83-b3d0-e0d9af762002}, !- Handle
  OnOff 1,                                !- Name
  0,                                      !- Lower Limit Value {BasedOnField A4}
  1,                                      !- Upper Limit Value {BasedOnField A4}
  Discrete,                               !- Numeric Type
  Availability;                           !- Unit Type

OS:Schedule:Day,
  {c2e877cf-5946-47dc-bcc6-e36f591186c9}, !- Handle
  Schedule Day 6,                         !- Name
  ,                                       !- Schedule Type Limits Name
  ,                                       !- Interpolate to Timestep
  24,                                     !- Hour 1
  0,                                      !- Minute 1
  0;                                      !- Value Until Time 1

OS:Schedule:Day,
  {2b816133-b668-4fc0-ae0b-f8a01f5237d2}, !- Handle
  Office HVAC Sch Winter Dsn Day,         !- Name
  {de77ae36-3d19-4d83-b3d0-e0d9af762002}, !- Schedule Type Limits Name
  ,                                       !- Interpolate to Timestep
  24,                                     !- Hour 1
  0,                                      !- Minute 1
  0;                                      !- Value Until Time 1

OS:Schedule:Day,
  {d2e438c8-e0be-4a1d-a9c0-f68335a9b3a9}, !- Handle
  Schedule Day 7,                         !- Name
  ,                                       !- Schedule Type Limits Name
  ,                                       !- Interpolate to Timestep
  24,                                     !- Hour 1
  0,                                      !- Minute 1
  0;                                      !- Value Until Time 1

OS:Schedule:Day,
  {85f992a3-3e06-4612-aca9-e82640a14a07}, !- Handle
  Office HVAC Sch Summer Dsn Day,         !- Name
  {de77ae36-3d19-4d83-b3d0-e0d9af762002}, !- Schedule Type Limits Name
  ,                                       !- Interpolate to Timestep
  6,                                      !- Hour 1
  0,                                      !- Minute 1
  0,                                      !- Value Until Time 1
  18,                                     !- Hour 2
  0,                                      !- Minute 2
  1,                                      !- Value Until Time 2
  24,                                     !- Hour 3
  0,                                      !- Minute 3
  0;                                      !- Value Until Time 3

OS:Schedule:Rule,
  {b3d0ab6e-2b99-44d4-8578-a7c8f7a374a7}, !- Handle
  Office HVAC Sch Sat Rule,               !- Name
  {874161e3-24dc-490f-bdf2-2ee37e908ce9}, !- Schedule Ruleset Name
  1,                                      !- Rule Order
  {27d4ae33-b3e4-4537-90d3-7bf4606551c1}, !- Day Schedule Name
  ,                                       !- Apply Sunday
  ,                                       !- Apply Monday
  ,                                       !- Apply Tuesday
  ,                                       !- Apply Wednesday
  ,                                       !- Apply Thursday
  ,                                       !- Apply Friday
  Yes;                                    !- Apply Saturday

OS:Schedule:Day,
  {27d4ae33-b3e4-4537-90d3-7bf4606551c1}, !- Handle
  Office HVAC Sch Sat,                    !- Name
  {de77ae36-3d19-4d83-b3d0-e0d9af762002}, !- Schedule Type Limits Name
  ,                                       !- Interpolate to Timestep
  6,                                      !- Hour 1
  0,                                      !- Minute 1
  0,                                      !- Value Until Time 1
  18,                                     !- Hour 2
  0,                                      !- Minute 2
  1,                                      !- Value Until Time 2
  24,                                     !- Hour 3
  0,                                      !- Minute 3
  0;                                      !- Value Until Time 3

OS:Schedule:Rule,
  {8a09b09d-d0c4-4ae7-b6fb-ade9e2910b1d}, !- Handle
  Office HVAC Sch Sun Rule,               !- Name
  {874161e3-24dc-490f-bdf2-2ee37e908ce9}, !- Schedule Ruleset Name
  0,                                      !- Rule Order
  {df87777e-ea95-4f12-9e8f-4d2b61e43074}, !- Day Schedule Name
  Yes;                                    !- Apply Sunday

OS:Schedule:Day,
  {df87777e-ea95-4f12-9e8f-4d2b61e43074}, !- Handle
  Office HVAC Sch Sun,                    !- Name
  {de77ae36-3d19-4d83-b3d0-e0d9af762002}, !- Schedule Type Limits Name
  ,                                       !- Interpolate to Timestep
  6,                                      !- Hour 1
  0,                                      !- Minute 1
  0,                                      !- Value Until Time 1
  18,                                     !- Hour 2
  0,                                      !- Minute 2
  1,                                      !- Value Until Time 2
  24,                                     !- Hour 3
  0,                                      !- Minute 3
  0;                                      !- Value Until Time 3

OS:Schedule:Ruleset,
  {fa89cd28-1906-4459-8c04-513cf451c398}, !- Handle
  Office SWH Sch,                         !- Name
  {9da823a1-18f9-4170-8c33-8dcbf6477937}, !- Schedule Type Limits Name
  {17aca308-2cf0-4071-951e-a1d55927b77d}, !- Default Day Schedule Name
  {4251f530-60ec-44ed-88f0-31019e829731}, !- Summer Design Day Schedule Name
  {12c34aaa-8dda-4a14-a252-def56fde9dbe}; !- Winter Design Day Schedule Name

OS:Schedule:Day,
  {17aca308-2cf0-4071-951e-a1d55927b77d}, !- Handle
  Office SWH Sch WkDay,                   !- Name
  {9da823a1-18f9-4170-8c33-8dcbf6477937}, !- Schedule Type Limits Name
  ,                                       !- Interpolate to Timestep
  5,                                      !- Hour 1
  0,                                      !- Minute 1
  0.05,                                   !- Value Until Time 1
  6,                                      !- Hour 2
  0,                                      !- Minute 2
  0.08,                                   !- Value Until Time 2
  7,                                      !- Hour 3
  0,                                      !- Minute 3
  0.07,                                   !- Value Until Time 3
  8,                                      !- Hour 4
  0,                                      !- Minute 4
  0.19,                                   !- Value Until Time 4
  9,                                      !- Hour 5
  0,                                      !- Minute 5
  0.35,                                   !- Value Until Time 5
  10,                                     !- Hour 6
  0,                                      !- Minute 6
  0.38,                                   !- Value Until Time 6
  11,                                     !- Hour 7
  0,                                      !- Minute 7
  0.39,                                   !- Value Until Time 7
  12,                                     !- Hour 8
  0,                                      !- Minute 8
  0.47,                                   !- Value Until Time 8
  13,                                     !- Hour 9
  0,                                      !- Minute 9
  0.57,                                   !- Value Until Time 9
  14,                                     !- Hour 10
  0,                                      !- Minute 10
  0.54,                                   !- Value Until Time 10
  15,                                     !- Hour 11
  0,                                      !- Minute 11
  0.34,                                   !- Value Until Time 11
  16,                                     !- Hour 12
  0,                                      !- Minute 12
  0.33,                                   !- Value Until Time 12
  17,                                     !- Hour 13
  0,                                      !- Minute 13
  0.44,                                   !- Value Until Time 13
  18,                                     !- Hour 14
  0,                                      !- Minute 14
  0.26,                                   !- Value Until Time 14
  19,                                     !- Hour 15
  0,                                      !- Minute 15
  0.21,                                   !- Value Until Time 15
  20,                                     !- Hour 16
  0,                                      !- Minute 16
  0.15,                                   !- Value Until Time 16
  21,                                     !- Hour 17
  0,                                      !- Minute 17
  0.17,                                   !- Value Until Time 17
  22,                                     !- Hour 18
  0,                                      !- Minute 18
  0.08,                                   !- Value Until Time 18
  24,                                     !- Hour 19
  0,                                      !- Minute 19
  0.05;                                   !- Value Until Time 19

OS:ScheduleTypeLimits,
  {9da823a1-18f9-4170-8c33-8dcbf6477937}, !- Handle
  Fractional 3,                           !- Name
  0,                                      !- Lower Limit Value {BasedOnField A4}
  1,                                      !- Upper Limit Value {BasedOnField A4}