
OS:Version,
  {5667439b-33be-4241-b624-134148ff9190}, !- Handle
  3.6.1;                                  !- Version Identifier

OS:ScheduleTypeLimits,
  {30764d57-fd57-45a7-a1f7-e1c16906c347}, !- Handle
  Always On Discrete Limits,              !- Name
  0,                                      !- Lower Limit Value
  1,                                      !- Upper Limit Value
  Discrete,                               !- Numeric Type
  Availability;                           !- Unit Type

OS:Rendering:Color,
  {6378dbec-eb36-48ce-bad0-f6c4e6eb1a52}, !- Handle
  Rendering Color 1,                      !- Name
  230,                                    !- Rendering Red Value
  157,                                    !- Rendering Green Value
  120;                                    !- Rendering Blue Value

OS:ScheduleTypeLimits,
  {46639c15-3d9e-445e-bf44-62058e5636d7}, ! Handle
  Fraction,                               ! Name
  0,                                      ! Lower Limit Value
  1,                                      ! Upper Limit Value
  CONTINUOUS;                             ! Numeric Type

OS:DesignSpecification:OutdoorAir,
  {275b2507-2551-4c6b-9576-0694f401735c}, !- Handle
  189.1-2009 - Office - BreakRoom - CZ1-3 Ventilation, !- Name
  Sum,                                    !- Outdoor Air Method
  0.007079211648,                         !- Outdoor Air Flow per Person {m3/s-person}
  ,                                       !- Outdoor Air Flow per Floor Area {m3/s-m2}
  ,                                       !- Outdoor Air Flow Rate {m3/s}
  ,                                       !- Outdoor Air Flow Air Changes per Hour {1/hr}
  ;                                       !- Outdoor Air Flow Rate Fraction Schedule Name

OS:ScheduleTypeLimits,
  {115aba64-18e9-477b-9f56-bc49f71a3d65}, !- Handle
  ActivityLevel,                          !- Name
  0,                                      !- Lower Limit Value
  ,                                       !- Upper Limit Value
  Continuous,                             !- Numeric Type
  ActivityLevel;                          !- Unit Type

OS:ScheduleTypeLimits,
  {fe175268-292a-4433-a896-b1196b2fabee}, !- Handle
  Temperature 36,                         !- Name
  ,                                       !- Lower Limit Value
  ,                                       !- Upper Limit Value
  Continuous,                             !- Numeric Type
  Temperature;                            !- Unit Type

OS:ScheduleTypeLimits,
  {39bcb3ad-c249-4e1e-963c-be23295372e4}, !- Handle
  Temperature 37,                         !- Name
  ,                                       !- Lower Limit Value
  ,                                       !- Upper Limit Value
  Continuous,                             !- Numeric Type
  Temperature;                            !- Unit Type

OS:Rendering:Color,
  {ba1f766f-181c-458c-9ef5-bb86302e4a6d}, !- Handle
  Rendering Color 2,                      !- Name
  120,                                    !- Rendering Red Value
  230,                                    !- Rendering Green Value
  199;                                    !- Rendering Blue Value

OS:DesignSpecification:OutdoorAir,
  {1bd42bc7-ba48-4bab-8bd8-c05a26eb63e0}, !- Handle
  189.1-2009 - Office - ClosedOffice - CZ1-3 Ventilation, !- Name
  Sum,                                    !- Outdoor Air Method
  0.009438948864,                         !- Outdoor Air Flow per Person {m3/s-person}
  ,                                       !- Outdoor Air Flow per Floor Area {m3/s-m2}
  ,                                       !- Outdoor Air Flow Rate {m3/s}
  ,                                       !- Outdoor Air Flow Air Changes per Hour {1/hr}
  ;                                       !- Outdoor Air Flow Rate Fraction Schedule Name

OS:Rendering:Color,
  {6ead6b3f-309f-49fb-902f-df18e88201ae}, !- Handle
  Rendering Color 3,                      !- Name
  230,                                    !- Rendering Red Value
  196,                                    !- Rendering Green Value
  120;                                    !- Rendering Blue Value

OS:DesignSpecification:OutdoorAir,
  {efbb3cc1-cd4b-4dc5-8eb7-eebc742afbdc}, !- Handle
  189.1-2009 - Office - Conference - CZ1-3 Ventilation, !- Name
  Sum,                                    !- Outdoor Air Method
  0.009438948864,                         !- Outdoor Air Flow per Person {m3/s-person}
  ,                                       !- Outdoor Air Flow per Floor Area {m3/s-m2}
  ,                                       !- Outdoor Air Flow Rate {m3/s}
  ,                                       !- Outdoor Air Flow Air Changes per Hour {1/hr}
  ;                                       !- Outdoor Air Flow Rate Fraction Schedule Name

OS:Rendering:Color,
  {f2532a3e-1ca1-4db9-998c-227431dfa48e}, !- Handle
  Rendering Color 4,                      !- Name
  169,                                    !- Rendering Red Value
  31,                                     !- Rendering Green Value
  31;                                     !- Rendering Blue Value

OS:DesignSpecification:OutdoorAir,
  {92dce51d-bb1c-4f88-86ed-bc5545e26f09}, !- Handle
  189.1-2009 - Office - Corridor - CZ1-3 Ventilation, !- Name
  Sum,                                    !- Outdoor Air Method
  ,                                       !- Outdoor Air Flow per Person {m3/s-person}
  0.000254,                               !- Outdoor Air Flow per Floor Area {m3/s-m2}
  ,                                       !- Outdoor Air Flow Rate {m3/s}
  ,                                       !- Outdoor Air Flow Air Changes per Hour {1/hr}
  ;                                       !- Outdoor Air Flow Rate Fraction Schedule Name

OS:Rendering:Color,
  {1f1f3d07-6d31-4834-9dcb-30d44551a6f6}, !- Handle
  Rendering Color 5,                      !- Name
  41,                                     !- Rendering Red Value
  31,                                     !- Rendering Green Value
  169;                                    !- Rendering Blue Value

OS:DesignSpecification:OutdoorAir,
  {890f4b3a-8ddf-43e6-aa80-3b305b723267}, !- Handle
  189.1-2009 - Office - Elec/MechRoom - CZ1-3 Ventilation, !- Name
  Sum,                                    !- Outdoor Air Method
  0.009438948864,                         !- Outdoor Air Flow per Person {m3/s-person}
  ,                                       !- Outdoor Air Flow per Floor Area {m3/s-m2}
  ,                                       !- Outdoor Air Flow Rate {m3/s}
  ,                                       !- Outdoor Air Flow Air Changes per Hour {1/hr}
  ;                                       !- Outdoor Air Flow Rate Fraction Schedule Name

OS:Rendering:Color,
  {e45237c0-fb92-4607-bd04-df09fc52bb34}, !- Handle
  Rendering Color 6,                      !- Name
  41,                                     !- Rendering Red Value
  31,                                     !- Rendering Green Value
  169;                                    !- Rendering Blue Value

OS:DesignSpecification:OutdoorAir,
  {514bdf65-6520-4040-8ce1-c99180e69ac4}, !- Handle
  189.1-2009 - Office - IT_Room - CZ1-3 Ventilation, !- Name
  Sum,                                    !- Outdoor Air Method
  ,                                       !- Outdoor Air Flow per Person {m3/s-person}
  0.000254,                               !- Outdoor Air Flow per Floor Area {m3/s-m2}
  ,                                       !- Outdoor Air Flow Rate {m3/s}
  ,                                       !- Outdoor Air Flow Air Changes per Hour {1/hr}
  ;                                       !- Outdoor Air Flow Rate Fraction Schedule Name

OS:Rendering:Color,
  {f2ffe214-9259-4b2f-8e48-35543d5fba21}, !- Handle
  Rendering Color 7,                      !- Name
  230,                                    !- Rendering Red Value
  157,                                    !- Rendering Green Value
  120;                                    !- Rendering Blue Value

OS:DesignSpecification:OutdoorAir,
  {f86340de-6056-4920-a25b-2457bbcdf377}, !- Handle
  189.1-2009 - Office - Lobby - CZ1-3 Ventilation, !- Name
  Sum,                                    !- Outdoor Air Method
  0.007079211648,                         !- Outdoor Air Flow per Person {m3/s-person}
  ,                                       !- Outdoor Air Flow per Floor Area {m3/s-m2}
  ,                                       !- Outdoor Air Flow Rate {m3/s}
  ,                                       !- Outdoor Air Flow Air Changes per Hour {1/hr}
  ;                                       !- Outdoor Air Flow Rate Fraction Schedule Name

OS:Rendering:Color,
  {a2c602da-91b1-4db5-892c-de58e18075ce}, !- Handle
  Rendering Color 8,                      !- Name
  120,                                    !- Rendering Red Value
  230,                                    !- Rendering Green Value
  199;                                    !- Rendering Blue Value

OS:DesignSpecification:OutdoorAir,
  {1c52920b-7e50-4069-8337-699cc915ed7c}, !- Handle
  189.1-2009 - Office - OpenOffice - CZ1-3 Ventilation, !- Name
  Sum,                                    !- Outdoor Air Method
  0.009438948864,                         !- Outdoor Air Flow per Person {m3/s-person}
  ,                                       !- Outdoor Air Flow per Floor Area {m3/s-m2}
  ,                                       !- Outdoor Air Flow Rate {m3/s}
  ,                                       !- Outdoor Air Flow Air Changes per Hour {1/hr}
  ;                                       !- Outdoor Air Flow Rate Fraction Schedule Name

OS:Building,
  {161a51f0-9700-4aa1-8ba8-f2513d0eecae}, !- Handle
  Building 1,                             !- Name
  ,                                       !- Building Sector Type
  44.6,                                   !- North Axis {deg}
  ,                                       !- Nominal Floor to Floor Height {m}
  ,                                       !- Space Type Name
  ,                                       !- Default Construction Set Name
  ,                                       !- Default Schedule Set Name
  4,                                      !- Standards Number of Stories
  4,                                      !- Standards Number of Above Ground Stories
  NECB2011,                               !- Standards Template
  SecondarySchool,                        !- Standards Building Type
  ,                                       !- Standards Number of Living Units
  ,                                       !- Relocatable
  ;                                       !- Nominal Floor to Ceiling Height {m}

OS:Rendering:Color,
  {15265381-e5e1-46ed-aa83-2328823b2654}, !- Handle
  Rendering Color 9,                      !- Name
  41,                                     !- Rendering Red Value
  31,                                     !- Rendering Green Value
  169;                                    !- Rendering Blue Value

OS:DesignSpecification:OutdoorAir,
  {58570dd6-8afc-4dcd-b069-b470e899067e}, !- Handle
  189.1-2009 - Office - PrintRoom - CZ1-3 Ventilation, !- Name
  Sum,                                    !- Outdoor Air Method
  ,                                       !- Outdoor Air Flow per Person {m3/s-person}
  0.000254,                               !- Outdoor Air Flow per Floor Area {m3/s-m2}
  ,                                       !- Outdoor Air Flow Rate {m3/s}
  ,                                       !- Outdoor Air Flow Air Changes per Hour {1/hr}
  ;                                       !- Outdoor Air Flow Rate Fraction Schedule Name

OS:Rendering:Color,
  {dd022378-ee6c-48ca-9a39-68a7adc126bd}, !- Handle
  Rendering Color 10,                     !- Name
  169,                                    !- Rendering Red Value
  169,                                    !- Rendering Green Value
  31;                                     !- Rendering Blue Value

OS:DesignSpecification:OutdoorAir,
  {bde92cb9-71ea-4377-ba7a-5ec383b04669}, !- Handle
  189.1-2009 - Office - Restroom - CZ1-3 Ventilation, !- Name
  Sum,                                    !- Outdoor Air Method
  ,                                       !- Outdoor Air Flow per Person {m3/s-person}
  0.0048768,                              !- Outdoor Air Flow per Floor Area {m3/s-m2}
  ,                                       !- Outdoor Air Flow Rate {m3/s}
  ,                                       !- Outdoor Air Flow Air Changes per Hour {1/hr}
  ;                                       !- Outdoor Air Flow Rate Fraction Schedule Name

OS:Rendering:Color,
  {a3d4d349-0de7-4e4f-ac21-f62447e12181}, !- Handle
  Rendering Color 11,                     !- Name
  230,                                    !- Rendering Red Value
  157,                                    !- Rendering Green Value
  120;                                    !- Rendering Blue Value

OS:DesignSpecification:OutdoorAir,
  {874a5fad-e186-4960-9b2a-0fba73083a6e}, !- Handle
  189.1-2009 - Office - Stair - CZ1-3 Ventilation, !- Name
  Sum,                                    !- Outdoor Air Method
  ,                                       !- Outdoor Air Flow per Person {m3/s-person}
  0.000254,                               !- Outdoor Air Flow per Floor Area {m3/s-m2}
  ,                                       !- Outdoor Air Flow Rate {m3/s}
  ,                                       !- Outdoor Air Flow Air Changes per Hour {1/hr}
  ;                                       !- Outdoor Air Flow Rate Fraction Schedule Name

OS:Rendering:Color,
  {abf602e1-5689-4887-bc4d-e6f2fc2451e4}, !- Handle
  Rendering Color 12,                     !- Name
  120,                                    !- Rendering Red Value
  149,                                    !- Rendering Green Value
  230;                                    !- Rendering Blue Value

OS:DesignSpecification:OutdoorAir,
  {4b03ea2e-ed8e-4436-b327-2f6e8ab4b5fb}, !- Handle
  189.1-2009 - Office - Storage - CZ1-3 Ventilation, !- Name
  Sum,                                    !- Outdoor Air Method
  ,                                       !- Outdoor Air Flow per Person {m3/s-person}
  0.000254,                               !- Outdoor Air Flow per Floor Area {m3/s-m2}
  ,                                       !- Outdoor Air Flow Rate {m3/s}
  ,                                       !- Outdoor Air Flow Air Changes per Hour {1/hr}
  ;                                       !- Outdoor Air Flow Rate Fraction Schedule Name

OS:Rendering:Color,
  {5d8d43b8-7e07-431a-89e4-e65ffc0a4f50}, !- Handle
  Rendering Color 13,                     !- Name
  230,                                    !- Rendering Red Value
  157,                                    !- Rendering Green Value
  120;                                    !- Rendering Blue Value

OS:DesignSpecification:OutdoorAir,
  {b486263b-55be-4328-a2c1-e999b7a6be2a}, !- Handle
  189.1-2009 - Office - Vending - CZ1-3 Ventilation, !- Name
  Sum,                                    !- Outdoor Air Method
  ,                                       !- Outdoor Air Flow per Person {m3/s-person}
  0.000254,                               !- Outdoor Air Flow per Floor Area {m3/s-m2}
  ,                                       !- Outdoor Air Flow Rate {m3/s}
  ,                                       !- Outdoor Air Flow Air Changes per Hour {1/hr}
  ;                                       !- Outdoor Air Flow Rate Fraction Schedule Name

OS:Rendering:Color,
  {ae6193b8-9d13-45ab-a3c0-13ea1b2d2000}, !- Handle
  Rendering Color 14,                     !- Name
  120,                                    !- Rendering Red Value
  230,                                    !- Rendering Green Value
  199;                                    !- Rendering Blue Value

OS:ScheduleTypeLimits,
  {c50de33e-2a31-403b-929e-8d1c42a993ef}, !- Handle
  Fractional,                             !- Name
  0,                                      !- Lower Limit Value
  1,                                      !- Upper Limit Value
  Continuous;                             !- Numeric Type

OS:DesignSpecification:OutdoorAir,
  {b212614e-35f5-4376-9ba6-f2029aa777a8}, !- Handle
  189.1-2009 - Office - WholeBuilding - Lg Office - CZ1-3 Ventilation, !- Name
  Sum,                                    !- Outdoor Air Method
  0.009438948864,                         !- Outdoor Air Flow per Person {m3/s-person}
  ,                                       !- Outdoor Air Flow per Floor Area {m3/s-m2}
  ,                                       !- Outdoor Air Flow Rate {m3/s}
  ,                                       !- Outdoor Air Flow Air Changes per Hour {1/hr}
  ;                                       !- Outdoor Air Flow Rate Fraction Schedule Name

OS:ScheduleTypeLimits,
  {db77c810-6d42-49c7-966e-9a928067165f}, !- Handle
  ActivityLevel 5,                        !- Name
  0,                                      !- Lower Limit Value
  ,                                       !- Upper Limit Value
  Continuous,                             !- Numeric Type
  ActivityLevel;                          !- Unit Type

OS:ScheduleTypeLimits,
  {a9dadb87-2284-4037-ada9-d8ba03d45fc3}, !- Handle
  Temperature 3,                          !- Name
  ,                                       !- Lower Limit Value
  ,                                       !- Upper Limit Value
  Continuous,                             !- Numeric Type
  Temperature;                            !- Unit Type

OS:ScheduleTypeLimits,
  {41c7ee57-bfc4-48e2-9eb9-df0001ab88f0}, !- Handle
  Temperature 5,                          !- Name
  ,                                       !- Lower Limit Value
  ,                                       !- Upper Limit Value
  Continuous,                             !- Numeric Type
  Temperature;                            !- Unit Type

OS:Rendering:Color,
  {5975c023-a3df-4e88-aa90-8dff615de763}, !- Handle
  Rendering Color 15,                     !- Name
  120,                                    !- Rendering Red Value
  230,                                    !- Rendering Green Value
  199;                                    !- Rendering Blue Value

OS:DesignSpecification:OutdoorAir,
  {7851d678-e330-4e18-a2dc-5b9884d95f5d}, !- Handle
  189.1-2009 - Office - WholeBuilding - Md Office - CZ1-3 Ventilation, !- Name
  Sum,                                    !- Outdoor Air Method
  0.009438948864,                         !- Outdoor Air Flow per Person {m3/s-person}
  ,                                       !- Outdoor Air Flow per Floor Area {m3/s-m2}
  ,                                       !- Outdoor Air Flow Rate {m3/s}
  ,                                       !- Outdoor Air Flow Air Changes per Hour {1/hr}
  ;                                       !- Outdoor Air Flow Rate Fraction Schedule Name

OS:ScheduleTypeLimits,
  {724e0a25-cd51-4aef-b8ed-bd0074db9d88}, !- Handle
  ActivityLevel 13,                       !- Name
  0,                                      !- Lower Limit Value
  ,                                       !- Upper Limit Value
  Continuous,                             !- Numeric Type
  ActivityLevel;                          !- Unit Type

OS:Rendering:Color,
  {6b14889b-0e4f-4f9c-b271-99b0da5e1a5b}, !- Handle
  Rendering Color 16,                     !- Name
  120,                                    !- Rendering Red Value
  230,                                    !- Rendering Green Value
  199;                                    !- Rendering Blue Value

OS:DesignSpecification:OutdoorAir,
  {aadd82c0-abc4-48dc-965e-f55d797a6f83}, !- Handle
  189.1-2009 - Office - WholeBuilding - Sm Office - CZ1-3 Ventilation, !- Name
  Sum,                                    !- Outdoor Air Method
  0.009438948864,                         !- Outdoor Air Flow per Person {m3/s-person}
  ,                                       !- Outdoor Air Flow per Floor Area {m3/s-m2}
  ,                                       !- Outdoor Air Flow Rate {m3/s}
  ,                                       !- Outdoor Air Flow Air Changes per Hour {1/hr}
  ;                                       !- Outdoor Air Flow Rate Fraction Schedule Name

OS:ScheduleTypeLimits,
  {914fb107-53c7-4ce8-8b3f-d09fe122736e}, !- Handle
  ActivityLevel 12,                       !- Name
  0,                                      !- Lower Limit Value
  ,                                       !- Upper Limit Value
  Continuous,                             !- Numeric Type
  ActivityLevel;                          !- Unit Type

OS:ScheduleTypeLimits,
  {d1762d25-1396-48e1-8abb-ba176787040b}, !- Handle
  Temperature 11,                         !- Name
  ,                                       !- Lower Limit Value
  ,                                       !- Upper Limit Value
  Continuous,                             !- Numeric Type
  Temperature;                            !- Unit Type

OS:ScheduleTypeLimits,
  {53148dd4-84bd-4672-a23f-d1e6e10976bd}, !- Handle
  Temperature 4,                          !- Name
  ,                                       !- Lower Limit Value
  ,                                       !- Upper Limit Value
  Continuous,                             !- Numeric Type
  Temperature;                            !- Unit Type

OS:Rendering:Color,
  {1ed40ce3-764d-4f1c-9541-cc382456360f}, !- Handle
  Rendering Color 17,                     !- Name
  230,                                    !- Rendering Red Value
  157,                                    !- Rendering Green Value
  120;                                    !- Rendering Blue Value

OS:DesignSpecification:OutdoorAir,
  {ede6a50d-2362-413c-be0a-bdd7b6d2c9d0}, !- Handle
  189.1-2009 - Office - BreakRoom - CZ4-8 Ventilation, !- Name
  Sum,                                    !- Outdoor Air Method
  0.007079211648,                         !- Outdoor Air Flow per Person {m3/s-person}
  ,                                       !- Outdoor Air Flow per Floor Area {m3/s-m2}
  ,                                       !- Outdoor Air Flow Rate {m3/s}
  ,                                       !- Outdoor Air Flow Air Changes per Hour {1/hr}
  ;                                       !- Outdoor Air Flow Rate Fraction Schedule Name

OS:Rendering:Color,
  {5a97a52e-68b4-4e2f-81c9-ef166edd12b7}, !- Handle
  Rendering Color 18,                     !- Name
  120,                                    !- Rendering Red Value
  230,                                    !- Rendering Green Value
  199;                                    !- Rendering Blue Value

OS:DesignSpecification:OutdoorAir,
  {2b42e002-98dd-4f77-80c3-8b0dfe621cbd}, !- Handle
  189.1-2009 - Office - ClosedOffice - CZ4-8 Ventilation, !- Name
  Sum,                                    !- Outdoor Air Method
  0.009438948864,                         !- Outdoor Air Flow per Person {m3/s-person}
  ,                                       !- Outdoor Air Flow per Floor Area {m3/s-m2}
  ,                                       !- Outdoor Air Flow Rate {m3/s}
  ,                                       !- Outdoor Air Flow Air Changes per Hour {1/hr}
  ;                                       !- Outdoor Air Flow Rate Fraction Schedule Name

OS:Rendering:Color,
  {9db44ca4-e829-4339-9e20-ab6d324a2f13}, !- Handle
  Rendering Color 19,                     !- Name
  230,                                    !- Rendering Red Value
  196,                                    !- Rendering Green Value
  120;                                    !- Rendering Blue Value

OS:DesignSpecification:OutdoorAir,
  {3254b270-d949-4693-9412-a307428311f3}, !- Handle
  189.1-2009 - Office - Conference - CZ4-8 Ventilation, !- Name
  Sum,                                    !- Outdoor Air Method
  0.009438948864,                         !- Outdoor Air Flow per Person {m3/s-person}
  ,                                       !- Outdoor Air Flow per Floor Area {m3/s-m2}
  ,                                       !- Outdoor Air Flow Rate {m3/s}
  ,                                       !- Outdoor Air Flow Air Changes per Hour {1/hr}
  ;                                       !- Outdoor Air Flow Rate Fraction Schedule Name

OS:Rendering:Color,
  {443e22e7-6eeb-4aff-b50d-5194717eb0c9}, !- Handle
  Rendering Color 20,                     !- Name
  169,                                    !- Rendering Red Value
  31,                                     !- Rendering Green Value
  31;                                     !- Rendering Blue Value

OS:DesignSpecification:OutdoorAir,
  {c0a4b775-f7e6-42e2-bdf4-0bffce82561e}, !- Handle
  189.1-2009 - Office - Corridor - CZ4-8 Ventilation, !- Name
  Sum,                                    !- Outdoor Air Method
  ,                                       !- Outdoor Air Flow per Person {m3/s-person}
  0.000254,                               !- Outdoor Air Flow per Floor Area {m3/s-m2}
  ,                                       !- Outdoor Air Flow Rate {m3/s}
  ,                                       !- Outdoor Air Flow Air Changes per Hour {1/hr}
  ;                                       !- Outdoor Air Flow Rate Fraction Schedule Name

OS:Rendering:Color,
  {6b853132-842e-4b4c-87a0-08e9ec11a8b4}, !- Handle
  Rendering Color 21,                     !- Name
  41,                                     !- Rendering Red Value
  31,                                     !- Rendering Green Value
  169;                                    !- Rendering Blue Value

OS:DesignSpecification:OutdoorAir,
  {5989f72c-8f33-401b-b226-56e3e1abb858}, !- Handle
  189.1-2009 - Office - Elec/MechRoom - CZ4-8 Ventilation, !- Name
  Sum,                                    !- Outdoor Air Method
  0.009438948864,                         !- Outdoor Air Flow per Person {m3/s-person}
  ,                                       !- Outdoor Air Flow per Floor Area {m3/s-m2}
  ,                                       !- Outdoor Air Flow Rate {m3/s}
  ,                                       !- Outdoor Air Flow Air Changes per Hour {1/hr}
  ;                                       !- Outdoor Air Flow Rate Fraction Schedule Name

OS:Rendering:Color,
  {e316459c-6c67-447f-b244-fafe96fcff21}, !- Handle
  Rendering Color 22,                     !- Name
  41,                                     !- Rendering Red Value
  31,                                     !- Rendering Green Value
  169;                                    !- Rendering Blue Value

OS:DesignSpecification:OutdoorAir,
  {f91e193c-4dfa-4e1f-891d-1bb64193ea5b}, !- Handle
  189.1-2009 - Office - IT_Room - CZ4-8 Ventilation, !- Name
  Sum,                                    !- Outdoor Air Method
  ,                                       !- Outdoor Air Flow per Person {m3/s-person}
  0.000254,                               !- Outdoor Air Flow per Floor Area {m3/s-m2}
  ,                                       !- Outdoor Air Flow Rate {m3/s}
  ,                                       !- Outdoor Air Flow Air Changes per Hour {1/hr}
  ;                                       !- Outdoor Air Flow Rate Fraction Schedule Name

OS:Rendering:Color,
  {f005d03e-0b41-4986-84d0-fadf1332ea93}, !- Handle
  Rendering Color 23,                     !- Name
  230,                                    !- Rendering Red Value
  157,                                    !- Rendering Green Value
  120;                                    !- Rendering Blue Value

OS:DesignSpecification:OutdoorAir,
  {9fdbf61f-10d9-4b28-9ae1-1b51b92263e7}, !- Handle
  189.1-2009 - Office - Lobby - CZ4-8 Ventilation, !- Name
  Sum,                                    !- Outdoor Air Method
  0.007079211648,                         !- Outdoor Air Flow per Person {m3/s-person}
  ,                                       !- Outdoor Air Flow per Floor Area {m3/s-m2}
  ,                                       !- Outdoor Air Flow Rate {m3/s}
  ,                                       !- Outdoor Air Flow Air Changes per Hour {1/hr}
  ;                                       !- Outdoor Air Flow Rate Fraction Schedule Name

OS:Rendering:Color,
  {3f9553ae-707b-4ca2-9ad4-508d4a337b65}, !- Handle
  Rendering Color 24,                     !- Name
  120,                                    !- Rendering Red Value
  230,                                    !- Rendering Green Value
  199;                                    !- Rendering Blue Value

OS:DesignSpecification:OutdoorAir,
  {732b6e8d-3ef7-48e5-8767-bf2a7dd07286}, !- Handle
  189.1-2009 - Office - OpenOffice - CZ4-8 Ventilation, !- Name
  Sum,                                    !- Outdoor Air Method
  0.009438948864,                         !- Outdoor Air Flow per Person {m3/s-person}
  ,                                       !- Outdoor Air Flow per Floor Area {m3/s-m2}
  ,                                       !- Outdoor Air Flow Rate {m3/s}
  ,                                       !- Outdoor Air Flow Air Changes per Hour {1/hr}
  ;                                       !- Outdoor Air Flow Rate Fraction Schedule Name

OS:Rendering:Color,
  {49ec93b0-9819-4bc1-abb0-0362d9489542}, !- Handle
  Rendering Color 25,                     !- Name
  41,                                     !- Rendering Red Value
  31,                                     !- Rendering Green Value
  169;                                    !- Rendering Blue Value

OS:DesignSpecification:OutdoorAir,
  {22b64ce4-85f1-4486-ba51-0520b58b4036}, !- Handle
  189.1-2009 - Office - PrintRoom - CZ4-8 Ventilation, !- Name
  Sum,                                    !- Outdoor Air Method
  ,                                       !- Outdoor Air Flow per Person {m3/s-person}
  0.000254,                               !- Outdoor Air Flow per Floor Area {m3/s-m2}
  ,                                       !- Outdoor Air Flow Rate {m3/s}
  ,                                       !- Outdoor Air Flow Air Changes per Hour {1/hr}
  ;                                       !- Outdoor Air Flow Rate Fraction Schedule Name

OS:Rendering:Color,