
OS:Version,
  {d79f4f70-f7b3-4a9a-b706-3e75587fd033}, !- Handle
  3.2.0;                                  !- Version Identifier

OS:Construction,
  {c674802b-248f-46df-aa71-a42af4dbb379}, !- Handle
  Attic & Other Roof CZ1 R-29,            !- Name
  ,                                       !- Surface Rendering Name
  {c19a63bf-6b51-4f19-a038-9cbee7c97fcf}, !- Layer 1
  {6deb7517-2c1a-463a-af8c-0ac066652981}; !- Layer 2

OS:StandardsInformation:Construction,
  {540c110d-01c0-4bb3-8f68-c3794827f953}, !- Handle
  {c674802b-248f-46df-aa71-a42af4dbb379}, !- Construction Name
  AtticFloor,                             !- Intended Surface Type
  WoodFramed;                             !- Standards Construction Type

OS:Material,
  {c19a63bf-6b51-4f19-a038-9cbee7c97fcf}, !- Handle
  5/8 in. Gypsum Board,                   !- Name
  MediumSmooth,                           !- Roughness
  0.0159,                                 !- Thickness {m}
  0.159999999999999,                      !- Conductivity {W/m-K}
  799.999999999999,                       !- Density {kg/m3}
  1090,                                   !- Specific Heat {J/kg-K}
  0.9,                                    !- Thermal Absorptance
  0.7,                                    !- Solar Absorptance
  0.7;                                    !- Visible Absorptance

OS:Material:NoMass,
  {6deb7517-2c1a-463a-af8c-0ac066652981}, !- Handle
  Typical Insulation R-27.78,             !- Name
  Smooth,                                 !- Roughness
  4.89189838823363,                       !- Thermal Resistance {m2-K/W}
  0.9,                                    !- Thermal Absorptance
  0.7,                                    !- Solar Absorptance
  0.7;                                    !- Visible Absorptance

OS:Construction,
  {326fa077-d308-4cf9-ac35-59c736bd113f}, !- Handle
  Typical Attic & Other Roof CZ1 R-29,    !- Name
  ,                                       !- Surface Rendering Name
  {c19a63bf-6b51-4f19-a038-9cbee7c97fcf}, !- Layer 1
  {6deb7517-2c1a-463a-af8c-0ac066652981}; !- Layer 2

OS:StandardsInformation:Construction,
  {b4d24796-0c74-4ff9-84b4-2f60a7e0e4f7}, !- Handle
  {326fa077-d308-4cf9-ac35-59c736bd113f}, !- Construction Name
  AtticFloor,                             !- Intended Surface Type
  WoodFramed;                             !- Standards Construction Type

OS:Construction,
  {2b68e500-b973-40bc-959a-986be154c2df}, !- Handle
  Attic & Other Roof CZ1 R-39,            !- Name
  ,                                       !- Surface Rendering Name
  {c19a63bf-6b51-4f19-a038-9cbee7c97fcf}, !- Layer 1
  {51d1c6a4-c984-4020-933b-c81d9e030941}; !- Layer 2

OS:StandardsInformation:Construction,
  {195fd4c7-6820-40cd-bfa0-3df6eb675250}, !- Handle
  {2b68e500-b973-40bc-959a-986be154c2df}, !- Construction Name
  AtticFloor,                             !- Intended Surface Type
  WoodFramed;                             !- Standards Construction Type

OS:Material:NoMass,
  {51d1c6a4-c984-4020-933b-c81d9e030941}, !- Handle
  Typical Insulation R-37.78,             !- Name
  Smooth,                                 !- Roughness
  6.65300022505669,                       !- Thermal Resistance {m2-K/W}
  0.9,                                    !- Thermal Absorptance
  0.7,                                    !- Solar Absorptance
  0.7;                                    !- Visible Absorptance

OS:Construction,
  {0eeb1bff-f8ab-4af4-8c0b-16f99b61b2eb}, !- Handle
  Attic & Other Roof CZ1 R-44,            !- Name
  ,                                       !- Surface Rendering Name
  {c19a63bf-6b51-4f19-a038-9cbee7c97fcf}, !- Layer 1
  {b42bca05-f6f0-48d0-b1a0-87c15026e035}; !- Layer 2

OS:StandardsInformation:Construction,
  {5bf08974-d842-4a50-b0d2-839ae9c29258}, !- Handle
  {0eeb1bff-f8ab-4af4-8c0b-16f99b61b2eb}, !- Construction Name
  AtticFloor,                             !- Intended Surface Type
  WoodFramed;                             !- Standards Construction Type

OS:Material:NoMass,
  {b42bca05-f6f0-48d0-b1a0-87c15026e035}, !- Handle
  Typical Insulation R-42.78,             !- Name
  Smooth,                                 !- Roughness
  7.53355114346822,                       !- Thermal Resistance {m2-K/W}
  0.9,                                    !- Thermal Absorptance
  0.7,                                    !- Solar Absorptance
  0.7;                                    !- Visible Absorptance

OS:Construction,
  {526bf968-9b84-41ea-8fd7-834121c0576c}, !- Handle
  Attic & Other Roof CZ1 R-49,            !- Name
  ,                                       !- Surface Rendering Name
  {c19a63bf-6b51-4f19-a038-9cbee7c97fcf}, !- Layer 1
  {fa8f36aa-5c6c-4f3d-8806-7cee0f227638}; !- Layer 2

OS:StandardsInformation:Construction,
  {d674aaf0-ffce-4acf-874e-424dd173de54}, !- Handle
  {526bf968-9b84-41ea-8fd7-834121c0576c}, !- Construction Name
  AtticFloor,                             !- Intended Surface Type
  WoodFramed;                             !- Standards Construction Type

OS:Material:NoMass,
  {fa8f36aa-5c6c-4f3d-8806-7cee0f227638}, !- Handle
  Typical Insulation R-47.78,             !- Name
  Smooth,                                 !- Roughness
  8.41410206187975,                       !- Thermal Resistance {m2-K/W}
  0.9,                                    !- Thermal Absorptance
  0.7,                                    !- Solar Absorptance
  0.7;                                    !- Visible Absorptance

OS:Construction,
  {70524de5-533a-4f41-96b1-885222446d92}, !- Handle
  Attic & Other Roof CZ1 R-54,            !- Name
  ,                                       !- Surface Rendering Name
  {c19a63bf-6b51-4f19-a038-9cbee7c97fcf}, !- Layer 1
  {e5bf4dc6-a27a-4d33-b1a6-315cef112325}; !- Layer 2

OS:StandardsInformation:Construction,
  {4924ccef-dedf-42da-ba1a-6262d55912d8}, !- Handle
  {70524de5-533a-4f41-96b1-885222446d92}, !- Construction Name
  AtticFloor,                             !- Intended Surface Type
  WoodFramed;                             !- Standards Construction Type

OS:Material:NoMass,
  {e5bf4dc6-a27a-4d33-b1a6-315cef112325}, !- Handle
  Typical Insulation R-52.78,             !- Name
  Smooth,                                 !- Roughness
  9.29465298029128,                       !- Thermal Resistance {m2-K/W}
  0.9,                                    !- Thermal Absorptance
  0.7,                                    !- Solar Absorptance
  0.7;                                    !- Visible Absorptance

OS:Construction,
  {5a76c2c1-781e-4e4c-b5bd-8e7d212e25da}, !- Handle
  IEAD Roof CZ1 R-16,                     !- Name
  ,                                       !- Surface Rendering Name
  {72dd7fc6-065e-42f7-905d-c79114f3ed07}, !- Layer 1
  {2672ce97-9e28-4617-b249-8cd94892e9e8}, !- Layer 2
  {f4ea587a-6fab-42e6-8641-8684e5b06d48}; !- Layer 3

OS:StandardsInformation:Construction,
  {abc14e7a-b06c-4940-89cb-2b016a42f270}, !- Handle
  {5a76c2c1-781e-4e4c-b5bd-8e7d212e25da}, !- Construction Name
  ExteriorRoof,                           !- Intended Surface Type
  IEAD;                                   !- Standards Construction Type

OS:Material,
  {72dd7fc6-065e-42f7-905d-c79114f3ed07}, !- Handle
  Roof Membrane - Highly Reflective,      !- Name
  VeryRough,                              !- Roughness
  0.0095,                                 !- Thickness {m}
  0.16,                                   !- Conductivity {W/m-K}
  1121.29,                                !- Density {kg/m3}
  1460,                                   !- Specific Heat {J/kg-K}
  0.75,                                   !- Thermal Absorptance
  0.45,                                   !- Solar Absorptance
  0.7;                                    !- Visible Absorptance

OS:Material:NoMass,
  {2672ce97-9e28-4617-b249-8cd94892e9e8}, !- Handle
  Typical Insulation R-14.76,             !- Name
  Smooth,                                 !- Roughness
  2.59864112987226,                       !- Thermal Resistance {m2-K/W}
  0.9,                                    !- Thermal Absorptance
  0.7,                                    !- Solar Absorptance
  0.7;                                    !- Visible Absorptance

OS:Material,
  {f4ea587a-6fab-42e6-8641-8684e5b06d48}, !- Handle
  Metal Roof Surface,                     !- Name
  Smooth,                                 !- Roughness
  0.000799999999999998,                   !- Thickness {m}
  45.2799999999999,                       !- Conductivity {W/m-K}
  7823.99999999999,                       !- Density {kg/m3}
  499.999999999996,                       !- Specific Heat {J/kg-K}
  0.9,                                    !- Thermal Absorptance
  0.7,                                    !- Solar Absorptance
  0.7;                                    !- Visible Absorptance

OS:Construction,
  {e76cb272-d26d-4e1a-a472-ae697d4fb20f}, !- Handle
  Typical IEAD Roof CZ1 R-16,             !- Name
  ,                                       !- Surface Rendering Name
  {72dd7fc6-065e-42f7-905d-c79114f3ed07}, !- Layer 1
  {2672ce97-9e28-4617-b249-8cd94892e9e8}, !- Layer 2
  {f4ea587a-6fab-42e6-8641-8684e5b06d48}; !- Layer 3

OS:StandardsInformation:Construction,
  {7fc14a03-bb81-49be-9500-9602effcdb32}, !- Handle
  {e76cb272-d26d-4e1a-a472-ae697d4fb20f}, !- Construction Name
  ExteriorRoof,                           !- Intended Surface Type
  IEAD;                                   !- Standards Construction Type

OS:Construction,
  {6d8b7a4b-3b01-42e3-acff-64c96f4d3390}, !- Handle
  IEAD Roof CZ1 R-26,                     !- Name
  ,                                       !- Surface Rendering Name
  {72dd7fc6-065e-42f7-905d-c79114f3ed07}, !- Layer 1
  {65d80810-ce86-416c-98d1-90846db00052}, !- Layer 2
  {f4ea587a-6fab-42e6-8641-8684e5b06d48}; !- Layer 3

OS:StandardsInformation:Construction,
  {47e8a243-b562-4c60-abfa-e1bc710cba00}, !- Handle
  {6d8b7a4b-3b01-42e3-acff-64c96f4d3390}, !- Construction Name
  ExteriorRoof,                           !- Intended Surface Type
  IEAD;                                   !- Standards Construction Type

OS:Material:NoMass,
  {65d80810-ce86-416c-98d1-90846db00052}, !- Handle
  Typical Insulation R-24.76,             !- Name
  Smooth,                                 !- Roughness
  4.35974296669532,                       !- Thermal Resistance {m2-K/W}
  0.9,                                    !- Thermal Absorptance
  0.7,                                    !- Solar Absorptance
  0.7;                                    !- Visible Absorptance

OS:Construction,
  {de45d4e5-751b-468d-a637-9e3d395685e4}, !- Handle
  IEAD Roof CZ1 R-31,                     !- Name
  ,                                       !- Surface Rendering Name
  {72dd7fc6-065e-42f7-905d-c79114f3ed07}, !- Layer 1
  {416f8628-abbe-4a3e-bcff-890f86c15034}, !- Layer 2
  {f4ea587a-6fab-42e6-8641-8684e5b06d48}; !- Layer 3

OS:StandardsInformation:Construction,
  {306dfb8b-715a-4cad-99e3-4ff9d59c8b4c}, !- Handle
  {de45d4e5-751b-468d-a637-9e3d395685e4}, !- Construction Name
  ExteriorRoof,                           !- Intended Surface Type
  IEAD;                                   !- Standards Construction Type

OS:Material:NoMass,
  {416f8628-abbe-4a3e-bcff-890f86c15034}, !- Handle
  Typical Insulation R-29.76,             !- Name
  Smooth,                                 !- Roughness
  5.24029388510685,                       !- Thermal Resistance {m2-K/W}
  0.9,                                    !- Thermal Absorptance
  0.7,                                    !- Solar Absorptance
  0.7;                                    !- Visible Absorptance

OS:Construction,
  {745b5bbb-5b4b-4f1e-bfe2-f611aeadc6f4}, !- Handle
  IEAD Roof CZ1 R-36,                     !- Name
  ,                                       !- Surface Rendering Name
  {72dd7fc6-065e-42f7-905d-c79114f3ed07}, !- Layer 1
  {ad9f3c7b-80ae-48a2-96da-6cfae08d589e}, !- Layer 2
  {f4ea587a-6fab-42e6-8641-8684e5b06d48}; !- Layer 3

OS:StandardsInformation:Construction,
  {7733b07e-4865-4e77-9140-cef277036b01}, !- Handle
  {745b5bbb-5b4b-4f1e-bfe2-f611aeadc6f4}, !- Construction Name
  ExteriorRoof,                           !- Intended Surface Type
  IEAD;                                   !- Standards Construction Type

OS:Material:NoMass,
  {ad9f3c7b-80ae-48a2-96da-6cfae08d589e}, !- Handle
  Typical Insulation R-34.76,             !- Name
  Smooth,                                 !- Roughness
  6.12084480351838,                       !- Thermal Resistance {m2-K/W}
  0.9,                                    !- Thermal Absorptance
  0.7,                                    !- Solar Absorptance
  0.7;                                    !- Visible Absorptance

OS:Construction,
  {f43b9241-52d8-439e-8f0b-29870f5e832b}, !- Handle
  IEAD Roof CZ1 R-41,                     !- Name
  ,                                       !- Surface Rendering Name
  {72dd7fc6-065e-42f7-905d-c79114f3ed07}, !- Layer 1
  {4b9fa284-ca65-4a47-acb5-fc002a3c4f50}, !- Layer 2
  {f4ea587a-6fab-42e6-8641-8684e5b06d48}; !- Layer 3

OS:StandardsInformation:Construction,
  {c8306b32-101d-4942-b9d0-6d52e997ecdf}, !- Handle
  {f43b9241-52d8-439e-8f0b-29870f5e832b}, !- Construction Name
  ExteriorRoof,                           !- Intended Surface Type
  IEAD;                                   !- Standards Construction Type

OS:Material:NoMass,
  {4b9fa284-ca65-4a47-acb5-fc002a3c4f50}, !- Handle
  Typical Insulation R-39.76,             !- Name
  Smooth,                                 !- Roughness
  7.00139572192991,                       !- Thermal Resistance {m2-K/W}
  0.9,                                    !- Thermal Absorptance
  0.7,                                    !- Solar Absorptance
  0.7;                                    !- Visible Absorptance

OS:Construction,
  {212319b2-0ee7-4e69-a31b-4cc1aa5cd4c0}, !- Handle
  Metal Roof CZ1 R-15,                    !- Name
  ,                                       !- Surface Rendering Name
  {bdcda733-8bb6-43dc-bed8-9de7fc34370c}, !- Layer 1
  {d9b50b3f-49cb-45a9-88c5-89efee42ac57}; !- Layer 2

OS:StandardsInformation:Construction,
  {cfde4953-c869-4705-987b-f7c62355a263}, !- Handle
  {212319b2-0ee7-4e69-a31b-4cc1aa5cd4c0}, !- Construction Name
  ExteriorRoof,                           !- Intended Surface Type
  Metal Building;                         !- Standards Construction Type

OS:Material,
  {bdcda733-8bb6-43dc-bed8-9de7fc34370c}, !- Handle
  Metal Roof Surface - Highly Reflective, !- Name
  Smooth,                                 !- Roughness
  0.000799999999999998,                   !- Thickness {m}
  45.2799999999999,                       !- Conductivity {W/m-K}
  7823.99999999999,                       !- Density {kg/m3}
  499.999999999996,                       !- Specific Heat {J/kg-K}
  0.75,                                   !- Thermal Absorptance
  0.45,                                   !- Solar Absorptance
  0.7;                                    !- Visible Absorptance

OS:Material:NoMass,
  {d9b50b3f-49cb-45a9-88c5-89efee42ac57}, !- Handle
  Typical Insulation R-14.6,              !- Name
  Smooth,                                 !- Roughness
  2.57200383014952,                       !- Thermal Resistance {m2-K/W}
  0.9,                                    !- Thermal Absorptance
  0.7,                                    !- Solar Absorptance
  0.7;                                    !- Visible Absorptance

OS:Construction,
  {33a967ba-ace4-44c5-8147-8bb9af2a9654}, !- Handle
  Typical Metal Roof CZ1 R-15,            !- Name
  ,                                       !- Surface Rendering Name
  {bdcda733-8bb6-43dc-bed8-9de7fc34370c}, !- Layer 1
  {d9b50b3f-49cb-45a9-88c5-89efee42ac57}; !- Layer 2

OS:StandardsInformation:Construction,
  {3ffa8463-6eaa-4eb4-ab61-96a54b11ed05}, !- Handle
  {33a967ba-ace4-44c5-8147-8bb9af2a9654}, !- Construction Name
  ExteriorRoof,                           !- Intended Surface Type
  Metal Building;                         !- Standards Construction Type

OS:Construction,
  {432f2db6-1030-4407-b88a-7c45e37f89cc}, !- Handle
  Metal Roof CZ1 R-25,                    !- Name
  ,                                       !- Surface Rendering Name
  {bdcda733-8bb6-43dc-bed8-9de7fc34370c}, !- Layer 1
  {91f78ac6-9753-4fe7-9476-bb01f8cdac27}; !- Layer 2

OS:StandardsInformation:Construction,
  {183779e7-c505-407b-a036-e6cf97353ee9}, !- Handle
  {432f2db6-1030-4407-b88a-7c45e37f89cc}, !- Construction Name
  ExteriorRoof,                           !- Intended Surface Type
  Metal Building;                         !- Standards Construction Type

OS:Material:NoMass,
  {91f78ac6-9753-4fe7-9476-bb01f8cdac27}, !- Handle
  Typical Insulation R-24.6,              !- Name
  Smooth,                                 !- Roughness
  4.33310566697258,                       !- Thermal Resistance {m2-K/W}
  0.9,                                    !- Thermal Absorptance
  0.7,                                    !- Solar Absorptance
  0.7;                                    !- Visible Absorptance

OS:Construction,
  {06a58cae-2af5-4ffe-a8a4-605ef8ecd733}, !- Handle
  Metal Roof CZ1 R-30,                    !- Name
  ,                                       !- Surface Rendering Name
  {bdcda733-8bb6-43dc-bed8-9de7fc34370c}, !- Layer 1
  {f1580a82-02ea-4012-85c7-c96c9caa6ba5}; !- Layer 2

OS:StandardsInformation:Construction,
  {3c47f65f-177b-4ef4-a120-e6588f43c11e}, !- Handle
  {06a58cae-2af5-4ffe-a8a4-605ef8ecd733}, !- Construction Name
  ExteriorRoof,                           !- Intended Surface Type
  Metal Building;                         !- Standards Construction Type

OS:Material:NoMass,
  {f1580a82-02ea-4012-85c7-c96c9caa6ba5}, !- Handle
  Typical Insulation R-29.6,              !- Name
  Smooth,                                 !- Roughness
  5.21365658538411,                       !- Thermal Resistance {m2-K/W}
  0.9,                                    !- Thermal Absorptance
  0.7,                                    !- Solar Absorptance
  0.7;                                    !- Visible Absorptance

OS:Construction,
  {d75c2d9a-5277-45aa-bb7d-fef14713b816}, !- Handle
  Metal Roof CZ1 R-35,                    !- Name
  ,                                       !- Surface Rendering Name
  {bdcda733-8bb6-43dc-bed8-9de7fc34370c}, !- Layer 1
  {9e736cc7-062c-4fe6-9b6f-7545fd844813}; !- Layer 2

OS:StandardsInformation:Construction,
  {4fc5da81-1852-4bcc-aab0-48a4f9d8e642}, !- Handle
  {d75c2d9a-5277-45aa-bb7d-fef14713b816}, !- Construction Name
  ExteriorRoof,                           !- Intended Surface Type
  Metal Building;                         !- Standards Construction Type

OS:Material:NoMass,
  {9e736cc7-062c-4fe6-9b6f-7545fd844813}, !- Handle
  Typical Insulation R-34.6,              !- Name
  Smooth,                                 !- Roughness
  6.09420750379564,                       !- Thermal Resistance {m2-K/W}
  0.9,                                    !- Thermal Absorptance
  0.7,                                    !- Solar Absorptance
  0.7;                                    !- Visible Absorptance

OS:Construction,
  {8b3b6766-80ed-4242-9b7a-e660d573031f}, !- Handle
  Metal Roof CZ1 R-40,                    !- Name
  ,                                       !- Surface Rendering Name
  {bdcda733-8bb6-43dc-bed8-9de7fc34370c}, !- Layer 1
  {4e654c4d-df18-4f2d-91d0-65eaa141aa69}; !- Layer 2

OS:StandardsInformation:Construction,
  {f341e4a9-9cb9-4fbb-902f-243cc924f188}, !- Handle
  {8b3b6766-80ed-4242-9b7a-e660d573031f}, !- Construction Name
  ExteriorRoof,                           !- Intended Surface Type
  Metal Building;                         !- Standards Construction Type

OS:Material:NoMass,
  {4e654c4d-df18-4f2d-91d0-65eaa141aa69}, !- Handle
  Typical Insulation R-39.6,              !- Name
  Smooth,                                 !- Roughness
  6.97475842220717,                       !- Thermal Resistance {m2-K/W}
  0.9,                                    !- Thermal Absorptance
  0.7,                                    !- Solar Absorptance
  0.7;                                    !- Visible Absorptance

OS:Construction,
  {6970c798-6795-462e-832d-0ae337c8c5e7}, !- Handle
  Mass Wall CZ1 R-2,                      !- Name
  ,                                       !- Surface Rendering Name
  {a6bb7e46-427f-4eef-bb58-3d3b0dcdca2d}, !- Layer 1
  {72245b04-0b12-4b4d-b094-0c0272667ce9}, !- Layer 2
  {87a29e26-080a-4ba1-92c7-6bfb917aa364}, !- Layer 3
  {402a1ace-3d5e-4a29-a786-2d247ebbeb22}; !- Layer 4

OS:StandardsInformation:Construction,
  {b5e11ed5-f962-4bca-bab2-ef845bd22be6}, !- Handle
  {6970c798-6795-462e-832d-0ae337c8c5e7}, !- Construction Name
  ExteriorWall,                           !- Intended Surface Type
  Mass;                                   !- Standards Construction Type

OS:Material,
  {a6bb7e46-427f-4eef-bb58-3d3b0dcdca2d}, !- Handle
  1IN Stucco,                             !- Name
  Smooth,                                 !- Roughness
  0.0253,                                 !- Thickness {m}
  0.691799999999999,                      !- Conductivity {W/m-K}
  1858,                                   !- Density {kg/m3}
  836.999999999999,                       !- Specific Heat {J/kg-K}
  0.9,                                    !- Thermal Absorptance
  0.7,                                    !- Solar Absorptance
  0.92;                                   !- Visible Absorptance

OS:Material,
  {72245b04-0b12-4b4d-b094-0c0272667ce9}, !- Handle
  8IN CONCRETE HW RefBldg,                !- Name
  Rough,                                  !- Roughness
  0.2032,                                 !- Thickness {m}
  1.311,                                  !- Conductivity {W/m-K}
  2240,                                   !- Density {kg/m3}
  836.800000000001,                       !- Specific Heat {J/kg-K}
  0.9,                                    !- Thermal Absorptance
  0.7,                                    !- Solar Absorptance
  0.7;                                    !- Visible Absorptance

OS:Material:NoMass,
  {87a29e26-080a-4ba1-92c7-6bfb917aa364}, !- Handle
  Typical Insulation R-0.01,              !- Name
  Smooth,                                 !- Roughness
  0.00176110183682306,                    !- Thermal Resistance {m2-K/W}
  0.9,                                    !- Thermal Absorptance
  0.7,                                    !- Solar Absorptance
  0.7;                                    !- Visible Absorptance

OS:Material,
  {402a1ace-3d5e-4a29-a786-2d247ebbeb22}, !- Handle
  1/2IN Gypsum,                           !- Name
  Smooth,                                 !- Roughness
  0.0127,                                 !- Thickness {m}
  0.16,                                   !- Conductivity {W/m-K}
  784.9,                                  !- Density {kg/m3}
  830.000000000001,                       !- Specific Heat {J/kg-K}
  0.9,                                    !- Thermal Absorptance
  0.4,                                    !- Solar Absorptance
  0.4;                                    !- Visible Absorptance

OS:Construction,
  {f06fd00e-f82f-43c6-b797-cc1ecc4a9cf4}, !- Handle
  Typical Mass Wall CZ1 R-2,              !- Name
  ,                                       !- Surface Rendering Name
  {a6bb7e46-427f-4eef-bb58-3d3b0dcdca2d}, !- Layer 1
  {72245b04-0b12-4b4d-b094-0c0272667ce9}, !- Layer 2
  {87a29e26-080a-4ba1-92c7-6bfb917aa364}, !- Layer 3
  {402a1ace-3d5e-4a29-a786-2d247ebbeb22}; !- Layer 4

OS:StandardsInformation:Construction,
  {9f25c0ae-bc12-49b8-b5b3-b7826ab66298}, !- Handle
  {f06fd00e-f82f-43c6-b797-cc1ecc4a9cf4}, !- Construction Name
  ExteriorWall,                           !- Intended Surface Type
  Mass;                                   !- Standards Construction Type

OS:Construction,
  {f0817009-39d6-416c-80a4-6825f4bc7d3d}, !- Handle
  Mass Wall CZ1 R-7,                      !- Name
  ,                                       !- Surface Rendering Name
  {a6bb7e46-427f-4eef-bb58-3d3b0dcdca2d}, !- Layer 1
  {72245b04-0b12-4b4d-b094-0c0272667ce9}, !- Layer 2
  {689208df-c55f-4d4d-9ef0-fa5d0e3e7a29}, !- Layer 3
  {402a1ace-3d5e-4a29-a786-2d247ebbeb22}; !- Layer 4

OS:StandardsInformation:Construction,
  {6672392c-05a2-4d4a-8aba-493c70194777}, !- Handle
  {f0817009-39d6-416c-80a4-6825f4bc7d3d}, !- Construction Name
  ExteriorWall,                           !- Intended Surface Type
  Mass;                                   !- Standards Construction Type

OS:Material:NoMass,
  {689208df-c55f-4d4d-9ef0-fa5d0e3e7a29}, !- Handle
  Typical Insulation R-4.34,              !- Name
  Smooth,                                 !- Roughness
  0.763553060521299,                      !- Thermal Resistance {m2-K/W}
  0.9,                                    !- Thermal Absorptance
  0.7,                                    !- Solar Absorptance
  0.7;                                    !- Visible Absorptance

OS:Construction,
  {d1f32b23-485f-43fa-95d3-df1e8f2e5d1d}, !- Handle
  Mass Wall CZ1 R-12,                     !- Name
  ,                                       !- Surface Rendering Name
  {a6bb7e46-427f-4eef-bb58-3d3b0dcdca2d}, !- Layer 1
  {72245b04-0b12-4b4d-b094-0c0272667ce9}, !- Layer 2
  {dc69a838-4bff-4e92-89e7-b9d0535970ef}, !- Layer 3
  {402a1ace-3d5e-4a29-a786-2d247ebbeb22}; !- Layer 4

OS:StandardsInformation:Construction,
  {767191e7-95b7-45ee-9e9b-5c3589272a14}, !- Handle
  {d1f32b23-485f-43fa-95d3-df1e8f2e5d1d}, !- Construction Name
  ExteriorWall,                           !- Intended Surface Type
  Mass;                                   !- Standards Construction Type

OS:Material:NoMass,
  {dc69a838-4bff-4e92-89e7-b9d0535970ef}, !- Handle
  Typical Insulation R-9.34,              !- Name
  Smooth,                                 !- Roughness
  1.64410397893283,                       !- Thermal Resistance {m2-K/W}
  0.9,                                    !- Thermal Absorptance
  0.7,                                    !- Solar Absorptance
  0.7;                                    !- Visible Absorptance

OS:Construction,
  {f24e77c3-8a13-4139-9398-a407905c6a31}, !- Handle
  Mass Wall CZ1 R-17,                     !- Name
  ,                                       !- Surface Rendering Name
  {a6bb7e46-427f-4eef-bb58-3d3b0dcdca2d}, !- Layer 1
  {72245b04-0b12-4b4d-b094-0c0272667ce9}, !- Layer 2
  {84f757f7-73c5-401c-93a1-9d8bceb098d2}, !- Layer 3
  {402a1ace-3d5e-4a29-a786-2d247ebbeb22}; !- Layer 4

OS:StandardsInformation:Construction,
  {4bbf9ae6-19e5-41ff-bc8d-6e21d47c85a5}, !- Handle
  {f24e77c3-8a13-4139-9398-a407905c6a31}, !- Construction Name
  ExteriorWall,                           !- Intended Surface Type
  Mass;                                   !- Standards Construction Type

OS:Material:NoMass,
  {84f757f7-73c5-401c-93a1-9d8bceb098d2}, !- Handle
  Typical Insulation R-14.34,             !- Name
  Smooth,                                 !- Roughness
  2.52465489734436,                       !- Thermal Resistance {m2-K/W}
  0.9,                                    !- Thermal Absorptance
  0.7,                                    !- Solar Absorptance
  0.7;                                    !- Visible Absorptance

OS:Construction,
  {fe8eb0d6-d898-47dc-90c5-40773e69fecf}, !- Handle
  Mass Wall CZ1 R-22,                     !- Name
  ,                                       !- Surface Rendering Name
  {a6bb7e46-427f-4eef-bb58-3d3b0dcdca2d}, !- Layer 1
  {72245b04-0b12-4b4d-b094-0c0272667ce9}, !- Layer 2
  {914b88b2-135a-4072-8146-ffbb1dd1af60}, !- Layer 3
  {402a1ace-3d5e-4a29-a786-2d247ebbeb22}; !- Layer 4

OS:StandardsInformation:Construction,
  {95593588-a541-4c60-b8b8-2fd6568138bc}, !- Handle
  {fe8eb0d6-d898-47dc-90c5-40773e69fecf}, !- Construction Name
  ExteriorWall,                           !- Intended Surface Type
  Mass;                                   !- Standards Construction Type

OS:Material:NoMass,
  {914b88b2-135a-4072-8146-ffbb1dd1af60}, !- Handle
  Typical Insulation R-19.34,             !- Name
  Smooth,                                 !- Roughness
  3.40520581575589,                       !- Thermal Resistance {m2-K/W}
  0.9,                                    !- Thermal Absorptance
  0.7,                                    !- Solar Absorptance
  0.7;                                    !- Visible Absorptance

OS:Construction,
  {d5079ad3-49d8-411b-b763-9b7968300328}, !- Handle
  Metal Wall CZ1 R-9,                     !- Name
  ,                                       !- Surface Rendering Name
  {cd7d7981-bcad-486e-8a00-dac42f226a71}, !- Layer 1
  {4d69f54d-5be6-4f8b-bf58-6cf49a60a795}, !- Layer 2
  {402a1ace-3d5e-4a29-a786-2d247ebbeb22}; !- Layer 3

OS:StandardsInformation:Construction,
  {4814435b-9d90-4b1c-a2be-4ffb4bc33efe}, !- Handle
  {d5079ad3-49d8-411b-b763-9b7968300328}, !- Construction Name
  ExteriorWall,                           !- Intended Surface Type
  Metal Building;                         !- Standards Construction Type

OS:Material,
  {cd7d7981-bcad-486e-8a00-dac42f226a71}, !- Handle
  Metal Siding,                           !- Name
  Smooth,                                 !- Roughness
  0.0015,                                 !- Thickness {m}
  44.9599999999999,                       !- Conductivity {W/m-K}
  7688.86,                                !- Density {kg/m3}
  410,                                    !- Specific Heat {J/kg-K}
  0.9,                                    !- Thermal Absorptance
  0.7,                                    !- Solar Absorptance
  0.7;                                    !- Visible Absorptance

OS:Material:NoMass,
  {4d69f54d-5be6-4f8b-bf58-6cf49a60a795}, !- Handle
  Typical Insulation R-7.55,              !- Name
  Smooth,                                 !- Roughness
  1.32939518160909,                       !- Thermal Resistance {m2-K/W}
  0.9,                                    !- Thermal Absorptance