
OS:Version,
  {6f01ae0e-9a9d-455d-9587-3c7fc1cd0e94}, !- Handle
  3.0.1;                                  !- Version Identifier

OS:Construction,
  {6d353f67-65ac-469e-8d3b-c638670a4fef}, !- Handle
  Attic & Other Roof CZ1 R-29,            !- Name
  ,                                       !- Surface Rendering Name
  {6ccedb28-59ea-433c-b9ec-cda37d928862}, !- Layer 1
  {7ec38178-579f-4e97-9f1d-4c6834a3ce02}; !- Layer 2

OS:StandardsInformation:Construction,
  {357a942f-918f-41e7-92a7-24496cb3fa93}, !- Handle
  {6d353f67-65ac-469e-8d3b-c638670a4fef}, !- Construction Name
  AtticFloor,                             !- Intended Surface Type
  WoodFramed;                             !- Standards Construction Type

OS:Material,
  {6ccedb28-59ea-433c-b9ec-cda37d928862}, !- Handle
  5/8 in. Gypsum Board,                   !- Name
  MediumSmooth,                           !- Roughness
  0.0159,                                 !- Thickness {m}
  0.159999999999999,                      !- Conductivity {W/m-K}
  799.999999999999,                       !- Density {kg/m3}
  1090,                                   !- Specific Heat {J/kg-K}
  0.9,                                    !- Thermal Absorptance
  0.7,                                    !- Solar Absorptance
  0.7;                                    !- Visible Absorptance

OS:Material:NoMass,
  {7ec38178-579f-4e97-9f1d-4c6834a3ce02}, !- Handle
  Typical Insulation R-27.78,             !- Name
  Smooth,                                 !- Roughness
  4.89189838823363,                       !- Thermal Resistance {m2-K/W}
  0.9,                                    !- Thermal Absorptance
  0.7,                                    !- Solar Absorptance
  0.7;                                    !- Visible Absorptance

OS:Construction,
  {1d24a276-80b1-4332-9906-23f529bd0512}, !- Handle
  Typical Attic & Other Roof CZ1 R-29,    !- Name
  ,                                       !- Surface Rendering Name
  {6ccedb28-59ea-433c-b9ec-cda37d928862}, !- Layer 1
  {7ec38178-579f-4e97-9f1d-4c6834a3ce02}; !- Layer 2

OS:StandardsInformation:Construction,
  {c69b90ca-38dd-4c4a-8cef-92f9354937b4}, !- Handle
  {1d24a276-80b1-4332-9906-23f529bd0512}, !- Construction Name
  AtticFloor,                             !- Intended Surface Type
  WoodFramed;                             !- Standards Construction Type

OS:Construction,
  {a874b49f-1ddb-46d7-9cc2-0d84d3a80f2b}, !- Handle
  Attic & Other Roof CZ1 R-39,            !- Name
  ,                                       !- Surface Rendering Name
  {6ccedb28-59ea-433c-b9ec-cda37d928862}, !- Layer 1
  {593bc7e8-e48f-438d-bad1-f5ce9c14bc7a}; !- Layer 2

OS:StandardsInformation:Construction,
  {b3ee7d9b-0b69-4c26-b370-e55b4c1f56d4}, !- Handle
  {a874b49f-1ddb-46d7-9cc2-0d84d3a80f2b}, !- Construction Name
  AtticFloor,                             !- Intended Surface Type
  WoodFramed;                             !- Standards Construction Type

OS:Material:NoMass,
  {593bc7e8-e48f-438d-bad1-f5ce9c14bc7a}, !- Handle
  Typical Insulation R-37.78,             !- Name
  Smooth,                                 !- Roughness
  6.65300022505669,                       !- Thermal Resistance {m2-K/W}
  0.9,                                    !- Thermal Absorptance
  0.7,                                    !- Solar Absorptance
  0.7;                                    !- Visible Absorptance

OS:Construction,
  {73c83c45-0e36-4b48-84fa-c95d818c6943}, !- Handle
  Attic & Other Roof CZ1 R-44,            !- Name
  ,                                       !- Surface Rendering Name
  {6ccedb28-59ea-433c-b9ec-cda37d928862}, !- Layer 1
  {945a6152-9b84-4952-97a1-097a035356f1}; !- Layer 2

OS:StandardsInformation:Construction,
  {4c82b5a4-0df3-4b4a-9412-1fcb7ca61873}, !- Handle
  {73c83c45-0e36-4b48-84fa-c95d818c6943}, !- Construction Name
  AtticFloor,                             !- Intended Surface Type
  WoodFramed;                             !- Standards Construction Type

OS:Material:NoMass,
  {945a6152-9b84-4952-97a1-097a035356f1}, !- Handle
  Typical Insulation R-42.78,             !- Name
  Smooth,                                 !- Roughness
  7.53355114346822,                       !- Thermal Resistance {m2-K/W}
  0.9,                                    !- Thermal Absorptance
  0.7,                                    !- Solar Absorptance
  0.7;                                    !- Visible Absorptance

OS:Construction,
  {049de1dc-ad31-4fc0-8db4-574ae8dc45bd}, !- Handle
  Attic & Other Roof CZ1 R-49,            !- Name
  ,                                       !- Surface Rendering Name
  {6ccedb28-59ea-433c-b9ec-cda37d928862}, !- Layer 1
  {e841eacf-3f4c-4563-a385-08b555b8f50b}; !- Layer 2

OS:StandardsInformation:Construction,
  {bb74d062-06b0-4654-bf61-013e90b13f01}, !- Handle
  {049de1dc-ad31-4fc0-8db4-574ae8dc45bd}, !- Construction Name
  AtticFloor,                             !- Intended Surface Type
  WoodFramed;                             !- Standards Construction Type

OS:Material:NoMass,
  {e841eacf-3f4c-4563-a385-08b555b8f50b}, !- Handle
  Typical Insulation R-47.78,             !- Name
  Smooth,                                 !- Roughness
  8.41410206187975,                       !- Thermal Resistance {m2-K/W}
  0.9,                                    !- Thermal Absorptance
  0.7,                                    !- Solar Absorptance
  0.7;                                    !- Visible Absorptance

OS:Construction,
  {66bfda92-10b4-46eb-8328-f53147545387}, !- Handle
  Attic & Other Roof CZ1 R-54,            !- Name
  ,                                       !- Surface Rendering Name
  {6ccedb28-59ea-433c-b9ec-cda37d928862}, !- Layer 1
  {1f5fcb7c-9b89-492f-a125-6127d66924ce}; !- Layer 2

OS:StandardsInformation:Construction,
  {51e8d97a-1930-4a0f-a041-577da04d0e55}, !- Handle
  {66bfda92-10b4-46eb-8328-f53147545387}, !- Construction Name
  AtticFloor,                             !- Intended Surface Type
  WoodFramed;                             !- Standards Construction Type

OS:Material:NoMass,
  {1f5fcb7c-9b89-492f-a125-6127d66924ce}, !- Handle
  Typical Insulation R-52.78,             !- Name
  Smooth,                                 !- Roughness
  9.29465298029128,                       !- Thermal Resistance {m2-K/W}
  0.9,                                    !- Thermal Absorptance
  0.7,                                    !- Solar Absorptance
  0.7;                                    !- Visible Absorptance

OS:Construction,
  {c4846ff6-2306-4123-9acb-8ece7892a73b}, !- Handle
  IEAD Roof CZ1 R-16,                     !- Name
  ,                                       !- Surface Rendering Name
  {334ae6de-c69c-48b8-9560-9260f0c109b1}, !- Layer 1
  {ded4ebeb-2a02-4671-8c14-dbe1a62937f3}, !- Layer 2
  {bed1b6f4-240f-48f7-9680-f17963542e43}; !- Layer 3

OS:StandardsInformation:Construction,
  {51760d81-b0b8-4302-82db-a1ba143ddba7}, !- Handle
  {c4846ff6-2306-4123-9acb-8ece7892a73b}, !- Construction Name
  ExteriorRoof,                           !- Intended Surface Type
  IEAD;                                   !- Standards Construction Type

OS:Material,
  {334ae6de-c69c-48b8-9560-9260f0c109b1}, !- Handle
  Roof Membrane - Highly Reflective,      !- Name
  VeryRough,                              !- Roughness
  0.0095,                                 !- Thickness {m}
  0.16,                                   !- Conductivity {W/m-K}
  1121.29,                                !- Density {kg/m3}
  1460,                                   !- Specific Heat {J/kg-K}
  0.75,                                   !- Thermal Absorptance
  0.45,                                   !- Solar Absorptance
  0.7;                                    !- Visible Absorptance

OS:Material:NoMass,
  {ded4ebeb-2a02-4671-8c14-dbe1a62937f3}, !- Handle
  Typical Insulation R-14.76,             !- Name
  Smooth,                                 !- Roughness
  2.59864112987226,                       !- Thermal Resistance {m2-K/W}
  0.9,                                    !- Thermal Absorptance
  0.7,                                    !- Solar Absorptance
  0.7;                                    !- Visible Absorptance

OS:Material,
  {bed1b6f4-240f-48f7-9680-f17963542e43}, !- Handle
  Metal Roof Surface,                     !- Name
  Smooth,                                 !- Roughness
  0.000799999999999998,                   !- Thickness {m}
  45.2799999999999,                       !- Conductivity {W/m-K}
  7823.99999999999,                       !- Density {kg/m3}
  499.999999999996,                       !- Specific Heat {J/kg-K}
  0.9,                                    !- Thermal Absorptance
  0.7,                                    !- Solar Absorptance
  0.7;                                    !- Visible Absorptance

OS:Construction,
  {d72202e1-fc91-49a9-be9d-9f45cdca2cee}, !- Handle
  Typical IEAD Roof CZ1 R-16,             !- Name
  ,                                       !- Surface Rendering Name
  {334ae6de-c69c-48b8-9560-9260f0c109b1}, !- Layer 1
  {ded4ebeb-2a02-4671-8c14-dbe1a62937f3}, !- Layer 2
  {bed1b6f4-240f-48f7-9680-f17963542e43}; !- Layer 3

OS:StandardsInformation:Construction,
  {892736f5-90bd-4675-a2d1-8e31685ffc1d}, !- Handle
  {d72202e1-fc91-49a9-be9d-9f45cdca2cee}, !- Construction Name
  ExteriorRoof,                           !- Intended Surface Type
  IEAD;                                   !- Standards Construction Type

OS:Construction,
  {066fb172-6538-4e76-81f4-5e43c4fb7712}, !- Handle
  IEAD Roof CZ1 R-26,                     !- Name
  ,                                       !- Surface Rendering Name
  {334ae6de-c69c-48b8-9560-9260f0c109b1}, !- Layer 1
  {f06eb7dd-43ea-427c-9219-ec03861897ce}, !- Layer 2
  {bed1b6f4-240f-48f7-9680-f17963542e43}; !- Layer 3

OS:StandardsInformation:Construction,
  {a1f0fd11-d24a-43cc-b79e-99bbb7bb8f7b}, !- Handle
  {066fb172-6538-4e76-81f4-5e43c4fb7712}, !- Construction Name
  ExteriorRoof,                           !- Intended Surface Type
  IEAD;                                   !- Standards Construction Type

OS:Material:NoMass,
  {f06eb7dd-43ea-427c-9219-ec03861897ce}, !- Handle
  Typical Insulation R-24.76,             !- Name
  Smooth,                                 !- Roughness
  4.35974296669532,                       !- Thermal Resistance {m2-K/W}
  0.9,                                    !- Thermal Absorptance
  0.7,                                    !- Solar Absorptance
  0.7;                                    !- Visible Absorptance

OS:Construction,
  {bcd340d9-7c9c-4472-89e3-256fc9041083}, !- Handle
  IEAD Roof CZ1 R-31,                     !- Name
  ,                                       !- Surface Rendering Name
  {334ae6de-c69c-48b8-9560-9260f0c109b1}, !- Layer 1
  {ae1810f3-c347-4bd0-82e1-4d54c1b41cef}, !- Layer 2
  {bed1b6f4-240f-48f7-9680-f17963542e43}; !- Layer 3

OS:StandardsInformation:Construction,
  {ebfcc82a-2549-44fe-a30c-8204a659d4c0}, !- Handle
  {bcd340d9-7c9c-4472-89e3-256fc9041083}, !- Construction Name
  ExteriorRoof,                           !- Intended Surface Type
  IEAD;                                   !- Standards Construction Type

OS:Material:NoMass,
  {ae1810f3-c347-4bd0-82e1-4d54c1b41cef}, !- Handle
  Typical Insulation R-29.76,             !- Name
  Smooth,                                 !- Roughness
  5.24029388510685,                       !- Thermal Resistance {m2-K/W}
  0.9,                                    !- Thermal Absorptance
  0.7,                                    !- Solar Absorptance
  0.7;                                    !- Visible Absorptance

OS:Construction,
  {f552c018-2550-47a0-ac25-eba84d78403d}, !- Handle
  IEAD Roof CZ1 R-36,                     !- Name
  ,                                       !- Surface Rendering Name
  {334ae6de-c69c-48b8-9560-9260f0c109b1}, !- Layer 1
  {9d3adeaa-30ef-4dcb-b3dc-5c4111a23056}, !- Layer 2
  {bed1b6f4-240f-48f7-9680-f17963542e43}; !- Layer 3

OS:StandardsInformation:Construction,
  {eaf4937e-2b1e-423f-88c3-78c7e3f5a720}, !- Handle
  {f552c018-2550-47a0-ac25-eba84d78403d}, !- Construction Name
  ExteriorRoof,                           !- Intended Surface Type
  IEAD;                                   !- Standards Construction Type

OS:Material:NoMass,
  {9d3adeaa-30ef-4dcb-b3dc-5c4111a23056}, !- Handle
  Typical Insulation R-34.76,             !- Name
  Smooth,                                 !- Roughness
  6.12084480351838,                       !- Thermal Resistance {m2-K/W}
  0.9,                                    !- Thermal Absorptance
  0.7,                                    !- Solar Absorptance
  0.7;                                    !- Visible Absorptance

OS:Construction,
  {9a50006a-6182-47f7-93d6-378bf65d45dc}, !- Handle
  IEAD Roof CZ1 R-41,                     !- Name
  ,                                       !- Surface Rendering Name
  {334ae6de-c69c-48b8-9560-9260f0c109b1}, !- Layer 1
  {77aadd86-de93-4ced-b527-5ed2d288d6a8}, !- Layer 2
  {bed1b6f4-240f-48f7-9680-f17963542e43}; !- Layer 3

OS:StandardsInformation:Construction,
  {70b7a2ca-1c7b-4e08-a195-d9f01d785419}, !- Handle
  {9a50006a-6182-47f7-93d6-378bf65d45dc}, !- Construction Name
  ExteriorRoof,                           !- Intended Surface Type
  IEAD;                                   !- Standards Construction Type

OS:Material:NoMass,
  {77aadd86-de93-4ced-b527-5ed2d288d6a8}, !- Handle
  Typical Insulation R-39.76,             !- Name
  Smooth,                                 !- Roughness
  7.00139572192991,                       !- Thermal Resistance {m2-K/W}
  0.9,                                    !- Thermal Absorptance
  0.7,                                    !- Solar Absorptance
  0.7;                                    !- Visible Absorptance

OS:Construction,
  {d883a4b4-8a29-468c-8555-6dc2fde39977}, !- Handle
  Metal Roof CZ1 R-15,                    !- Name
  ,                                       !- Surface Rendering Name
  {82b23ba8-af24-4d8c-b3ac-2729021e2d31}, !- Layer 1
  {44d80874-3808-46e9-9079-ecc98b83ea1c}; !- Layer 2

OS:StandardsInformation:Construction,
  {1ad292a5-0acf-4118-b147-e847ab854015}, !- Handle
  {d883a4b4-8a29-468c-8555-6dc2fde39977}, !- Construction Name
  ExteriorRoof,                           !- Intended Surface Type
  Metal Building;                         !- Standards Construction Type

OS:Material,
  {82b23ba8-af24-4d8c-b3ac-2729021e2d31}, !- Handle
  Metal Roof Surface - Highly Reflective, !- Name
  Smooth,                                 !- Roughness
  0.000799999999999998,                   !- Thickness {m}
  45.2799999999999,                       !- Conductivity {W/m-K}
  7823.99999999999,                       !- Density {kg/m3}
  499.999999999996,                       !- Specific Heat {J/kg-K}
  0.75,                                   !- Thermal Absorptance
  0.45,                                   !- Solar Absorptance
  0.7;                                    !- Visible Absorptance

OS:Material:NoMass,
  {44d80874-3808-46e9-9079-ecc98b83ea1c}, !- Handle
  Typical Insulation R-14.6,              !- Name
  Smooth,                                 !- Roughness
  2.57200383014952,                       !- Thermal Resistance {m2-K/W}
  0.9,                                    !- Thermal Absorptance
  0.7,                                    !- Solar Absorptance
  0.7;                                    !- Visible Absorptance

OS:Construction,
  {c44e48ca-7170-4d70-b4ba-d5603b0edfd9}, !- Handle
  Typical Metal Roof CZ1 R-15,            !- Name
  ,                                       !- Surface Rendering Name
  {82b23ba8-af24-4d8c-b3ac-2729021e2d31}, !- Layer 1
  {44d80874-3808-46e9-9079-ecc98b83ea1c}; !- Layer 2

OS:StandardsInformation:Construction,
  {70673295-ae78-46e9-8134-3ab77fc00a53}, !- Handle
  {c44e48ca-7170-4d70-b4ba-d5603b0edfd9}, !- Construction Name
  ExteriorRoof,                           !- Intended Surface Type
  Metal Building;                         !- Standards Construction Type

OS:Construction,
  {639e588e-75ec-45f1-bfe7-41f6e8451d36}, !- Handle
  Metal Roof CZ1 R-25,                    !- Name
  ,                                       !- Surface Rendering Name
  {82b23ba8-af24-4d8c-b3ac-2729021e2d31}, !- Layer 1
  {4f349a02-bda5-44ca-88d8-e5f4f5970e91}; !- Layer 2

OS:StandardsInformation:Construction,
  {2ce0f648-cf82-4826-9ea2-c43c4fe5533c}, !- Handle
  {639e588e-75ec-45f1-bfe7-41f6e8451d36}, !- Construction Name
  ExteriorRoof,                           !- Intended Surface Type
  Metal Building;                         !- Standards Construction Type

OS:Material:NoMass,
  {4f349a02-bda5-44ca-88d8-e5f4f5970e91}, !- Handle
  Typical Insulation R-24.6,              !- Name
  Smooth,                                 !- Roughness
  4.33310566697258,                       !- Thermal Resistance {m2-K/W}
  0.9,                                    !- Thermal Absorptance
  0.7,                                    !- Solar Absorptance
  0.7;                                    !- Visible Absorptance

OS:Construction,
  {407c049a-41eb-44c9-8116-31460bd73c8c}, !- Handle
  Metal Roof CZ1 R-30,                    !- Name
  ,                                       !- Surface Rendering Name
  {82b23ba8-af24-4d8c-b3ac-2729021e2d31}, !- Layer 1
  {09a6678f-24e2-4ba4-9d94-26a14ec9b1f1}; !- Layer 2

OS:StandardsInformation:Construction,
  {5ce2f777-a9dd-4a41-86ad-d48e9e7f7fc3}, !- Handle
  {407c049a-41eb-44c9-8116-31460bd73c8c}, !- Construction Name
  ExteriorRoof,                           !- Intended Surface Type
  Metal Building;                         !- Standards Construction Type

OS:Material:NoMass,
  {09a6678f-24e2-4ba4-9d94-26a14ec9b1f1}, !- Handle
  Typical Insulation R-29.6,              !- Name
  Smooth,                                 !- Roughness
  5.21365658538411,                       !- Thermal Resistance {m2-K/W}
  0.9,                                    !- Thermal Absorptance
  0.7,                                    !- Solar Absorptance
  0.7;                                    !- Visible Absorptance

OS:Construction,
  {2d369b30-0e1c-4026-ad59-27cd1a57c33a}, !- Handle
  Metal Roof CZ1 R-35,                    !- Name
  ,                                       !- Surface Rendering Name
  {82b23ba8-af24-4d8c-b3ac-2729021e2d31}, !- Layer 1
  {34275f36-dfed-4286-9e2e-2da09d151aef}; !- Layer 2

OS:StandardsInformation:Construction,
  {87f0fe83-d1ff-4b1e-abed-dded613d7ce6}, !- Handle
  {2d369b30-0e1c-4026-ad59-27cd1a57c33a}, !- Construction Name
  ExteriorRoof,                           !- Intended Surface Type
  Metal Building;                         !- Standards Construction Type

OS:Material:NoMass,
  {34275f36-dfed-4286-9e2e-2da09d151aef}, !- Handle
  Typical Insulation R-34.6,              !- Name
  Smooth,                                 !- Roughness
  6.09420750379564,                       !- Thermal Resistance {m2-K/W}
  0.9,                                    !- Thermal Absorptance
  0.7,                                    !- Solar Absorptance
  0.7;                                    !- Visible Absorptance

OS:Construction,
  {66050789-ce8c-48c9-82d6-a1cc90f1d970}, !- Handle
  Metal Roof CZ1 R-40,                    !- Name
  ,                                       !- Surface Rendering Name
  {82b23ba8-af24-4d8c-b3ac-2729021e2d31}, !- Layer 1
  {6b1dbb34-8ba9-4883-ac86-b2d711c747ed}; !- Layer 2

OS:StandardsInformation:Construction,
  {bbfe8ed5-a086-4f4b-a200-1099aa410c03}, !- Handle
  {66050789-ce8c-48c9-82d6-a1cc90f1d970}, !- Construction Name
  ExteriorRoof,                           !- Intended Surface Type
  Metal Building;                         !- Standards Construction Type

OS:Material:NoMass,
  {6b1dbb34-8ba9-4883-ac86-b2d711c747ed}, !- Handle
  Typical Insulation R-39.6,              !- Name
  Smooth,                                 !- Roughness
  6.97475842220717,                       !- Thermal Resistance {m2-K/W}
  0.9,                                    !- Thermal Absorptance
  0.7,                                    !- Solar Absorptance
  0.7;                                    !- Visible Absorptance

OS:Construction,
  {b8959eba-7412-4d63-bd1e-3b066b55c9ea}, !- Handle
  Mass Wall CZ1 R-2,                      !- Name
  ,                                       !- Surface Rendering Name
  {e144a831-efa7-4922-b7f2-1af788d0bf79}, !- Layer 1
  {b08bd0ef-bcfb-4cd0-8712-f1bd752d5ed7}, !- Layer 2
  {a1ceaeaa-1761-47df-8202-904d5b2795fc}, !- Layer 3
  {729986ae-51dc-4740-b8db-adc3c0784354}; !- Layer 4

OS:StandardsInformation:Construction,
  {161f7d4d-dcc0-4725-b29e-9c3d852fe3b6}, !- Handle
  {b8959eba-7412-4d63-bd1e-3b066b55c9ea}, !- Construction Name
  ExteriorWall,                           !- Intended Surface Type
  Mass;                                   !- Standards Construction Type

OS:Material,
  {e144a831-efa7-4922-b7f2-1af788d0bf79}, !- Handle
  1IN Stucco,                             !- Name
  Smooth,                                 !- Roughness
  0.0253,                                 !- Thickness {m}
  0.691799999999999,                      !- Conductivity {W/m-K}
  1858,                                   !- Density {kg/m3}
  836.999999999999,                       !- Specific Heat {J/kg-K}
  0.9,                                    !- Thermal Absorptance
  0.7,                                    !- Solar Absorptance
  0.92;                                   !- Visible Absorptance

OS:Material,
  {b08bd0ef-bcfb-4cd0-8712-f1bd752d5ed7}, !- Handle
  8IN CONCRETE HW RefBldg,                !- Name
  Rough,                                  !- Roughness
  0.2032,                                 !- Thickness {m}
  1.311,                                  !- Conductivity {W/m-K}
  2240,                                   !- Density {kg/m3}
  836.800000000001,                       !- Specific Heat {J/kg-K}
  0.9,                                    !- Thermal Absorptance
  0.7,                                    !- Solar Absorptance
  0.7;                                    !- Visible Absorptance

OS:Material:NoMass,
  {a1ceaeaa-1761-47df-8202-904d5b2795fc}, !- Handle
  Typical Insulation R-0.01,              !- Name
  Smooth,                                 !- Roughness
  0.00176110183682306,                    !- Thermal Resistance {m2-K/W}
  0.9,                                    !- Thermal Absorptance
  0.7,                                    !- Solar Absorptance
  0.7;                                    !- Visible Absorptance

OS:Material,
  {729986ae-51dc-4740-b8db-adc3c0784354}, !- Handle
  1/2IN Gypsum,                           !- Name
  Smooth,                                 !- Roughness
  0.0127,                                 !- Thickness {m}
  0.16,                                   !- Conductivity {W/m-K}
  784.9,                                  !- Density {kg/m3}
  830.000000000001,                       !- Specific Heat {J/kg-K}
  0.9,                                    !- Thermal Absorptance
  0.4,                                    !- Solar Absorptance
  0.4;                                    !- Visible Absorptance

OS:Construction,
  {5eea9e06-dbed-4105-a1d7-85271a17c4ca}, !- Handle
  Typical Mass Wall CZ1 R-2,              !- Name
  ,                                       !- Surface Rendering Name
  {e144a831-efa7-4922-b7f2-1af788d0bf79}, !- Layer 1
  {b08bd0ef-bcfb-4cd0-8712-f1bd752d5ed7}, !- Layer 2
  {a1ceaeaa-1761-47df-8202-904d5b2795fc}, !- Layer 3
  {729986ae-51dc-4740-b8db-adc3c0784354}; !- Layer 4

OS:StandardsInformation:Construction,
  {2b8d7868-357d-4bbc-ba78-8a087f2ffb5b}, !- Handle
  {5eea9e06-dbed-4105-a1d7-85271a17c4ca}, !- Construction Name
  ExteriorWall,                           !- Intended Surface Type
  Mass;                                   !- Standards Construction Type

OS:Construction,
  {e4af922c-b2ea-45c5-8ce6-c3359cc8f9e9}, !- Handle
  Mass Wall CZ1 R-7,                      !- Name
  ,                                       !- Surface Rendering Name
  {e144a831-efa7-4922-b7f2-1af788d0bf79}, !- Layer 1
  {b08bd0ef-bcfb-4cd0-8712-f1bd752d5ed7}, !- Layer 2
  {a1d803d8-0ac8-4e31-a08d-19f7b3d678e3}, !- Layer 3
  {729986ae-51dc-4740-b8db-adc3c0784354}; !- Layer 4

OS:StandardsInformation:Construction,
  {018a32ef-fe70-441b-9b06-31453308afbb}, !- Handle
  {e4af922c-b2ea-45c5-8ce6-c3359cc8f9e9}, !- Construction Name
  ExteriorWall,                           !- Intended Surface Type
  Mass;                                   !- Standards Construction Type

OS:Material:NoMass,
  {a1d803d8-0ac8-4e31-a08d-19f7b3d678e3}, !- Handle
  Typical Insulation R-4.34,              !- Name
  Smooth,                                 !- Roughness
  0.763553060521299,                      !- Thermal Resistance {m2-K/W}
  0.9,                                    !- Thermal Absorptance
  0.7,                                    !- Solar Absorptance
  0.7;                                    !- Visible Absorptance

OS:Construction,
  {796a48a5-79e5-45c1-891f-07ac946c8ec8}, !- Handle
  Mass Wall CZ1 R-12,                     !- Name
  ,                                       !- Surface Rendering Name
  {e144a831-efa7-4922-b7f2-1af788d0bf79}, !- Layer 1
  {b08bd0ef-bcfb-4cd0-8712-f1bd752d5ed7}, !- Layer 2
  {54b6a744-80b8-4a45-a47b-68e0406bf9c9}, !- Layer 3
  {729986ae-51dc-4740-b8db-adc3c0784354}; !- Layer 4

OS:StandardsInformation:Construction,
  {d463ff47-1c55-4c02-bf49-9402585f8cba}, !- Handle
  {796a48a5-79e5-45c1-891f-07ac946c8ec8}, !- Construction Name
  ExteriorWall,                           !- Intended Surface Type
  Mass;                                   !- Standards Construction Type

OS:Material:NoMass,
  {54b6a744-80b8-4a45-a47b-68e0406bf9c9}, !- Handle
  Typical Insulation R-9.34,              !- Name
  Smooth,                                 !- Roughness
  1.64410397893283,                       !- Thermal Resistance {m2-K/W}
  0.9,                                    !- Thermal Absorptance
  0.7,                                    !- Solar Absorptance
  0.7;                                    !- Visible Absorptance

OS:Construction,
  {d48888f3-3566-4da4-9576-9e3c08a8e406}, !- Handle
  Mass Wall CZ1 R-17,                     !- Name
  ,                                       !- Surface Rendering Name
  {e144a831-efa7-4922-b7f2-1af788d0bf79}, !- Layer 1
  {b08bd0ef-bcfb-4cd0-8712-f1bd752d5ed7}, !- Layer 2
  {bb360d2c-5fc0-451d-b94b-2a1db9cd7062}, !- Layer 3
  {729986ae-51dc-4740-b8db-adc3c0784354}; !- Layer 4

OS:StandardsInformation:Construction,
  {19a42b76-8a87-4ae5-a865-e178661cb9ee}, !- Handle
  {d48888f3-3566-4da4-9576-9e3c08a8e406}, !- Construction Name
  ExteriorWall,                           !- Intended Surface Type
  Mass;                                   !- Standards Construction Type

OS:Material:NoMass,
  {bb360d2c-5fc0-451d-b94b-2a1db9cd7062}, !- Handle
  Typical Insulation R-14.34,             !- Name
  Smooth,                                 !- Roughness
  2.52465489734436,                       !- Thermal Resistance {m2-K/W}
  0.9,                                    !- Thermal Absorptance
  0.7,                                    !- Solar Absorptance
  0.7;                                    !- Visible Absorptance

OS:Construction,
  {651ab199-7015-47d7-9c32-4a7090b9abed}, !- Handle
  Mass Wall CZ1 R-22,                     !- Name
  ,                                       !- Surface Rendering Name
  {e144a831-efa7-4922-b7f2-1af788d0bf79}, !- Layer 1
  {b08bd0ef-bcfb-4cd0-8712-f1bd752d5ed7}, !- Layer 2
  {ebd9c80b-a69e-495e-ba5b-1f44e51b8d33}, !- Layer 3
  {729986ae-51dc-4740-b8db-adc3c0784354}; !- Layer 4

OS:StandardsInformation:Construction,
  {4d701076-75b2-444e-a06a-5e91f2b213ed}, !- Handle
  {651ab199-7015-47d7-9c32-4a7090b9abed}, !- Construction Name
  ExteriorWall,                           !- Intended Surface Type
  Mass;                                   !- Standards Construction Type

OS:Material:NoMass,
  {ebd9c80b-a69e-495e-ba5b-1f44e51b8d33}, !- Handle
  Typical Insulation R-19.34,             !- Name
  Smooth,                                 !- Roughness
  3.40520581575589,                       !- Thermal Resistance {m2-K/W}
  0.9,                                    !- Thermal Absorptance
  0.7,                                    !- Solar Absorptance
  0.7;                                    !- Visible Absorptance

OS:Construction,
  {937d0cd0-be6b-4ac0-abd6-94e021d39708}, !- Handle
  Metal Wall CZ1 R-9,                     !- Name
  ,                                       !- Surface Rendering Name
  {e2385f22-dec5-4bdb-8f2e-c3f880590b64}, !- Layer 1
  {eeb1b99e-fdc5-4a0c-87b1-d7e272798c03}, !- Layer 2
  {729986ae-51dc-4740-b8db-adc3c0784354}; !- Layer 3

OS:StandardsInformation:Construction,
  {cd7e44c0-eba1-4ee0-96cc-41ae7131e05e}, !- Handle
  {937d0cd0-be6b-4ac0-abd6-94e021d39708}, !- Construction Name
  ExteriorWall,                           !- Intended Surface Type
  Metal Building;                         !- Standards Construction Type

OS:Material,
  {e2385f22-dec5-4bdb-8f2e-c3f880590b64}, !- Handle
  Metal Siding,                           !- Name
  Smooth,                                 !- Roughness
  0.0015,                                 !- Thickness {m}
  44.9599999999999,                       !- Conductivity {W/m-K}
  7688.86,                                !- Density {kg/m3}
  410,                                    !- Specific Heat {J/kg-K}
  0.9,                                    !- Thermal Absorptance
  0.7,                                    !- Solar Absorptance
  0.7;                                    !- Visible Absorptance

OS:Material:NoMass,
  {eeb1b99e-fdc5-4a0c-87b1-d7e272798c03}, !- Handle
  Typical Insulation R-7.55,              !- Name
  Smooth,                                 !- Roughness
  1.32939518160909,                       !- Thermal Resistance {m2-K/W}
  0.9,                                    !- Thermal Absorptance