
OS:Version,
  {71936802-2fb1-4bd8-948b-49c96ab98529}, !- Handle
  2.9.1;                                  !- Version Identifier

OS:Construction,
  {781cdab2-db9c-4223-997d-e70316abef3b}, !- Handle
  Typical Attic & Other Roof CZ1 R-29,    !- Name
  ,                                       !- Surface Rendering Name
  {f9b7f71f-fd29-4f49-9a95-1a2beaaef806}, !- Layer 1
  {df910e10-89cf-4bc3-bb2c-cd7527256da2}; !- Layer 2

OS:StandardsInformation:Construction,
  {c01878c4-976d-46d0-99e2-7e94d1f7b545}, !- Handle
  {781cdab2-db9c-4223-997d-e70316abef3b}, !- Construction Name
  AtticFloor,                             !- Intended Surface Type
  WoodFramed;                             !- Standards Construction Type

OS:Material,
  {f9b7f71f-fd29-4f49-9a95-1a2beaaef806}, !- Handle
  5/8 in. Gypsum Board,                   !- Name
  MediumSmooth,                           !- Roughness
  0.0159,                                 !- Thickness {m}
  0.159999999999999,                      !- Conductivity {W/m-K}
  799.999999999999,                       !- Density {kg/m3}
  1090,                                   !- Specific Heat {J/kg-K}
  0.9,                                    !- Thermal Absorptance
  0.7,                                    !- Solar Absorptance
  0.7;                                    !- Visible Absorptance

OS:Material:NoMass,
  {df910e10-89cf-4bc3-bb2c-cd7527256da2}, !- Handle
  Typical Insulation R-27.78,             !- Name
  Smooth,                                 !- Roughness
  4.89189838823363,                       !- Thermal Resistance {m2-K/W}
  0.9,                                    !- Thermal Absorptance
  0.7,                                    !- Solar Absorptance
  0.7;                                    !- Visible Absorptance

OS:Construction,
  {46caf0db-433f-46d5-bf95-68bb2afa98a3}, !- Handle
  Attic & Other Roof CZ1 R-39,            !- Name
  ,                                       !- Surface Rendering Name
  {f9b7f71f-fd29-4f49-9a95-1a2beaaef806}, !- Layer 1
  {4c668ea2-032c-400d-9def-ba7110f21a87}; !- Layer 2

OS:StandardsInformation:Construction,
  {e9ab2e4f-9335-4259-bfd4-f177499fceed}, !- Handle
  {46caf0db-433f-46d5-bf95-68bb2afa98a3}, !- Construction Name
  AtticFloor,                             !- Intended Surface Type
  WoodFramed;                             !- Standards Construction Type

OS:Material:NoMass,
  {4c668ea2-032c-400d-9def-ba7110f21a87}, !- Handle
  Typical Insulation R-37.78,             !- Name
  Smooth,                                 !- Roughness
  6.65300022505669,                       !- Thermal Resistance {m2-K/W}
  0.9,                                    !- Thermal Absorptance
  0.7,                                    !- Solar Absorptance
  0.7;                                    !- Visible Absorptance

OS:Construction,
  {40350417-0020-4773-91b4-221d9c5310d7}, !- Handle
  Attic & Other Roof CZ1 R-44,            !- Name
  ,                                       !- Surface Rendering Name
  {f9b7f71f-fd29-4f49-9a95-1a2beaaef806}, !- Layer 1
  {df053039-4f32-4b91-9846-80fbab9021cc}; !- Layer 2

OS:StandardsInformation:Construction,
  {11762cba-4c49-4ac0-9394-8f78be58c33e}, !- Handle
  {40350417-0020-4773-91b4-221d9c5310d7}, !- Construction Name
  AtticFloor,                             !- Intended Surface Type
  WoodFramed;                             !- Standards Construction Type

OS:Material:NoMass,
  {df053039-4f32-4b91-9846-80fbab9021cc}, !- Handle
  Typical Insulation R-42.78,             !- Name
  Smooth,                                 !- Roughness
  7.53355114346822,                       !- Thermal Resistance {m2-K/W}
  0.9,                                    !- Thermal Absorptance
  0.7,                                    !- Solar Absorptance
  0.7;                                    !- Visible Absorptance

OS:Construction,
  {25c57356-f526-497b-b3ae-04b0f10090c1}, !- Handle
  Attic & Other Roof CZ1 R-49,            !- Name
  ,                                       !- Surface Rendering Name
  {f9b7f71f-fd29-4f49-9a95-1a2beaaef806}, !- Layer 1
  {e08d845a-37e3-4847-aacd-773349d28a1e}; !- Layer 2

OS:StandardsInformation:Construction,
  {4752d0a9-3b97-4939-aafe-0d826a55ab57}, !- Handle
  {25c57356-f526-497b-b3ae-04b0f10090c1}, !- Construction Name
  AtticFloor,                             !- Intended Surface Type
  WoodFramed;                             !- Standards Construction Type

OS:Material:NoMass,
  {e08d845a-37e3-4847-aacd-773349d28a1e}, !- Handle
  Typical Insulation R-47.78,             !- Name
  Smooth,                                 !- Roughness
  8.41410206187975,                       !- Thermal Resistance {m2-K/W}
  0.9,                                    !- Thermal Absorptance
  0.7,                                    !- Solar Absorptance
  0.7;                                    !- Visible Absorptance

OS:Construction,
  {bd18077e-b4c7-413a-99de-a9925a3dd0a9}, !- Handle
  Attic & Other Roof CZ1 R-54,            !- Name
  ,                                       !- Surface Rendering Name
  {f9b7f71f-fd29-4f49-9a95-1a2beaaef806}, !- Layer 1
  {9123b234-f35e-4584-a4bb-afedb148c1c5}; !- Layer 2

OS:StandardsInformation:Construction,
  {c1f29e46-f9c4-4e46-a8c0-c06d71496315}, !- Handle
  {bd18077e-b4c7-413a-99de-a9925a3dd0a9}, !- Construction Name
  AtticFloor,                             !- Intended Surface Type
  WoodFramed;                             !- Standards Construction Type

OS:Material:NoMass,
  {9123b234-f35e-4584-a4bb-afedb148c1c5}, !- Handle
  Typical Insulation R-52.78,             !- Name
  Smooth,                                 !- Roughness
  9.29465298029128,                       !- Thermal Resistance {m2-K/W}
  0.9,                                    !- Thermal Absorptance
  0.7,                                    !- Solar Absorptance
  0.7;                                    !- Visible Absorptance

OS:Construction,
  {a154e3de-46a9-4285-a4c0-1d9cfddbbb65}, !- Handle
  Typical IEAD Roof CZ1 R-16,             !- Name
  ,                                       !- Surface Rendering Name
  {b1a78a11-f593-4e70-a496-77ec68af37a5}, !- Layer 1
  {42d24b79-5bfb-4b58-9646-8c246e107445}, !- Layer 2
  {ef81c3e7-f7db-4741-9ef0-4b28677b8254}; !- Layer 3

OS:StandardsInformation:Construction,
  {5aa7da65-ea9e-4fb5-9b80-641aefad574d}, !- Handle
  {a154e3de-46a9-4285-a4c0-1d9cfddbbb65}, !- Construction Name
  ExteriorRoof,                           !- Intended Surface Type
  IEAD;                                   !- Standards Construction Type

OS:Material,
  {b1a78a11-f593-4e70-a496-77ec68af37a5}, !- Handle
  Roof Membrane - Highly Reflective,      !- Name
  VeryRough,                              !- Roughness
  0.0095,                                 !- Thickness {m}
  0.16,                                   !- Conductivity {W/m-K}
  1121.29,                                !- Density {kg/m3}
  1460,                                   !- Specific Heat {J/kg-K}
  0.75,                                   !- Thermal Absorptance
  0.45,                                   !- Solar Absorptance
  0.7;                                    !- Visible Absorptance

OS:Material:NoMass,
  {42d24b79-5bfb-4b58-9646-8c246e107445}, !- Handle
  Typical Insulation R-14.76,             !- Name
  Smooth,                                 !- Roughness
  2.59864112987226,                       !- Thermal Resistance {m2-K/W}
  0.9,                                    !- Thermal Absorptance
  0.7,                                    !- Solar Absorptance
  0.7;                                    !- Visible Absorptance

OS:Material,
  {ef81c3e7-f7db-4741-9ef0-4b28677b8254}, !- Handle
  Metal Roof Surface,                     !- Name
  Smooth,                                 !- Roughness
  0.000799999999999998,                   !- Thickness {m}
  45.2799999999999,                       !- Conductivity {W/m-K}
  7823.99999999999,                       !- Density {kg/m3}
  499.999999999996,                       !- Specific Heat {J/kg-K}
  0.9,                                    !- Thermal Absorptance
  0.7,                                    !- Solar Absorptance
  0.7;                                    !- Visible Absorptance

OS:Construction,
  {2cb9fcbe-b87c-452e-8c63-cce76d728fca}, !- Handle
  IEAD Roof CZ1 R-26,                     !- Name
  ,                                       !- Surface Rendering Name
  {b1a78a11-f593-4e70-a496-77ec68af37a5}, !- Layer 1
  {7ee859dd-5197-4fc3-af6b-9c6907b532e6}, !- Layer 2
  {ef81c3e7-f7db-4741-9ef0-4b28677b8254}; !- Layer 3

OS:StandardsInformation:Construction,
  {96b774a5-04c4-4b72-9eb5-65ba1300011a}, !- Handle
  {2cb9fcbe-b87c-452e-8c63-cce76d728fca}, !- Construction Name
  ExteriorRoof,                           !- Intended Surface Type
  IEAD;                                   !- Standards Construction Type

OS:Material:NoMass,
  {7ee859dd-5197-4fc3-af6b-9c6907b532e6}, !- Handle
  Typical Insulation R-24.76,             !- Name
  Smooth,                                 !- Roughness
  4.35974296669532,                       !- Thermal Resistance {m2-K/W}
  0.9,                                    !- Thermal Absorptance
  0.7,                                    !- Solar Absorptance
  0.7;                                    !- Visible Absorptance

OS:Construction,
  {d8261a7b-1019-4f5b-8948-d4dbc5a7a1e9}, !- Handle
  IEAD Roof CZ1 R-31,                     !- Name
  ,                                       !- Surface Rendering Name
  {b1a78a11-f593-4e70-a496-77ec68af37a5}, !- Layer 1
  {40f43470-332c-4536-a78f-da759dd63ace}, !- Layer 2
  {ef81c3e7-f7db-4741-9ef0-4b28677b8254}; !- Layer 3

OS:StandardsInformation:Construction,
  {4cdf121e-95c7-4b81-9cec-384e30dab60e}, !- Handle
  {d8261a7b-1019-4f5b-8948-d4dbc5a7a1e9}, !- Construction Name
  ExteriorRoof,                           !- Intended Surface Type
  IEAD;                                   !- Standards Construction Type

OS:Material:NoMass,
  {40f43470-332c-4536-a78f-da759dd63ace}, !- Handle
  Typical Insulation R-29.76,             !- Name
  Smooth,                                 !- Roughness
  5.24029388510685,                       !- Thermal Resistance {m2-K/W}
  0.9,                                    !- Thermal Absorptance
  0.7,                                    !- Solar Absorptance
  0.7;                                    !- Visible Absorptance

OS:Construction,
  {7e14ab64-145b-4856-ac79-d5a4963ed629}, !- Handle
  IEAD Roof CZ1 R-36,                     !- Name
  ,                                       !- Surface Rendering Name
  {b1a78a11-f593-4e70-a496-77ec68af37a5}, !- Layer 1
  {78eed80a-8e70-4459-9212-850485de31e9}, !- Layer 2
  {ef81c3e7-f7db-4741-9ef0-4b28677b8254}; !- Layer 3

OS:StandardsInformation:Construction,
  {5cb61f67-bbdf-4e03-b5d7-7991a14115e6}, !- Handle
  {7e14ab64-145b-4856-ac79-d5a4963ed629}, !- Construction Name
  ExteriorRoof,                           !- Intended Surface Type
  IEAD;                                   !- Standards Construction Type

OS:Material:NoMass,
  {78eed80a-8e70-4459-9212-850485de31e9}, !- Handle
  Typical Insulation R-34.76,             !- Name
  Smooth,                                 !- Roughness
  6.12084480351838,                       !- Thermal Resistance {m2-K/W}
  0.9,                                    !- Thermal Absorptance
  0.7,                                    !- Solar Absorptance
  0.7;                                    !- Visible Absorptance

OS:Construction,
  {3f9aa88f-192c-4872-ac66-80437402d1a7}, !- Handle
  IEAD Roof CZ1 R-41,                     !- Name
  ,                                       !- Surface Rendering Name
  {b1a78a11-f593-4e70-a496-77ec68af37a5}, !- Layer 1
  {de8cad0b-bb32-4fc6-9bc9-959c4cd64edb}, !- Layer 2
  {ef81c3e7-f7db-4741-9ef0-4b28677b8254}; !- Layer 3

OS:StandardsInformation:Construction,
  {1081ecca-d8ed-486c-8b52-ae72edb8bd2d}, !- Handle
  {3f9aa88f-192c-4872-ac66-80437402d1a7}, !- Construction Name
  ExteriorRoof,                           !- Intended Surface Type
  IEAD;                                   !- Standards Construction Type

OS:Material:NoMass,
  {de8cad0b-bb32-4fc6-9bc9-959c4cd64edb}, !- Handle
  Typical Insulation R-39.76,             !- Name
  Smooth,                                 !- Roughness
  7.00139572192991,                       !- Thermal Resistance {m2-K/W}
  0.9,                                    !- Thermal Absorptance
  0.7,                                    !- Solar Absorptance
  0.7;                                    !- Visible Absorptance

OS:Construction,
  {28a977f2-2724-4d7e-b723-753c85891d6f}, !- Handle
  Typical Metal Roof CZ1 R-15,            !- Name
  ,                                       !- Surface Rendering Name
  {c0c07c67-3eb8-4833-ab02-8352334dfbad}, !- Layer 1
  {d6aac7d9-ffd8-4946-b3b1-4eba59d05fde}; !- Layer 2

OS:StandardsInformation:Construction,
  {d8ca9e4a-4a2d-4065-91a9-9543ed52269b}, !- Handle
  {28a977f2-2724-4d7e-b723-753c85891d6f}, !- Construction Name
  ExteriorRoof,                           !- Intended Surface Type
  Metal Building;                         !- Standards Construction Type

OS:Material,
  {c0c07c67-3eb8-4833-ab02-8352334dfbad}, !- Handle
  Metal Roof Surface - Highly Reflective, !- Name
  Smooth,                                 !- Roughness
  0.000799999999999998,                   !- Thickness {m}
  45.2799999999999,                       !- Conductivity {W/m-K}
  7823.99999999999,                       !- Density {kg/m3}
  499.999999999996,                       !- Specific Heat {J/kg-K}
  0.75,                                   !- Thermal Absorptance
  0.45,                                   !- Solar Absorptance
  0.7;                                    !- Visible Absorptance

OS:Material:NoMass,
  {d6aac7d9-ffd8-4946-b3b1-4eba59d05fde}, !- Handle
  Typical Insulation R-14.6,              !- Name
  Smooth,                                 !- Roughness
  2.57200383014952,                       !- Thermal Resistance {m2-K/W}
  0.9,                                    !- Thermal Absorptance
  0.7,                                    !- Solar Absorptance
  0.7;                                    !- Visible Absorptance

OS:Construction,
  {5bf962da-7220-492a-80b5-31b477da052a}, !- Handle
  Metal Roof CZ1 R-25,                    !- Name
  ,                                       !- Surface Rendering Name
  {c0c07c67-3eb8-4833-ab02-8352334dfbad}, !- Layer 1
  {18f7b9fe-bd54-4998-8bc1-3db6ac9d5404}; !- Layer 2

OS:StandardsInformation:Construction,
  {53609fde-e5c9-44c6-a807-2065f9b07a1b}, !- Handle
  {5bf962da-7220-492a-80b5-31b477da052a}, !- Construction Name
  ExteriorRoof,                           !- Intended Surface Type
  Metal Building;                         !- Standards Construction Type

OS:Material:NoMass,
  {18f7b9fe-bd54-4998-8bc1-3db6ac9d5404}, !- Handle
  Typical Insulation R-24.6,              !- Name
  Smooth,                                 !- Roughness
  4.33310566697258,                       !- Thermal Resistance {m2-K/W}
  0.9,                                    !- Thermal Absorptance
  0.7,                                    !- Solar Absorptance
  0.7;                                    !- Visible Absorptance

OS:Construction,
  {7dd73cde-2ba2-4615-b9f5-0811b3918979}, !- Handle
  Metal Roof CZ1 R-30,                    !- Name
  ,                                       !- Surface Rendering Name
  {c0c07c67-3eb8-4833-ab02-8352334dfbad}, !- Layer 1
  {a8e684cd-eb20-478f-8588-12640ae04594}; !- Layer 2

OS:StandardsInformation:Construction,
  {42c1d5e6-5a0f-463c-a2de-bc51a7e6d31e}, !- Handle
  {7dd73cde-2ba2-4615-b9f5-0811b3918979}, !- Construction Name
  ExteriorRoof,                           !- Intended Surface Type
  Metal Building;                         !- Standards Construction Type

OS:Material:NoMass,
  {a8e684cd-eb20-478f-8588-12640ae04594}, !- Handle
  Typical Insulation R-29.6,              !- Name
  Smooth,                                 !- Roughness
  5.21365658538411,                       !- Thermal Resistance {m2-K/W}
  0.9,                                    !- Thermal Absorptance
  0.7,                                    !- Solar Absorptance
  0.7;                                    !- Visible Absorptance

OS:Construction,
  {980aacc0-ced9-4a2e-9ab0-013beab8335a}, !- Handle
  Metal Roof CZ1 R-35,                    !- Name
  ,                                       !- Surface Rendering Name
  {c0c07c67-3eb8-4833-ab02-8352334dfbad}, !- Layer 1
  {7217819d-d240-46c4-9c84-cdbf02a7fcf3}; !- Layer 2

OS:StandardsInformation:Construction,
  {ed398b26-c3fc-48de-8749-40b8db90f963}, !- Handle
  {980aacc0-ced9-4a2e-9ab0-013beab8335a}, !- Construction Name
  ExteriorRoof,                           !- Intended Surface Type
  Metal Building;                         !- Standards Construction Type

OS:Material:NoMass,
  {7217819d-d240-46c4-9c84-cdbf02a7fcf3}, !- Handle
  Typical Insulation R-34.6,              !- Name
  Smooth,                                 !- Roughness
  6.09420750379564,                       !- Thermal Resistance {m2-K/W}
  0.9,                                    !- Thermal Absorptance
  0.7,                                    !- Solar Absorptance
  0.7;                                    !- Visible Absorptance

OS:Construction,
  {03754227-af78-4c6a-8b2e-cbffabc1af96}, !- Handle
  Metal Roof CZ1 R-40,                    !- Name
  ,                                       !- Surface Rendering Name
  {c0c07c67-3eb8-4833-ab02-8352334dfbad}, !- Layer 1
  {752b0464-6c58-40fd-a876-d4a816f727b7}; !- Layer 2

OS:StandardsInformation:Construction,
  {d96bb901-ae2a-4835-8773-e20f36848593}, !- Handle
  {03754227-af78-4c6a-8b2e-cbffabc1af96}, !- Construction Name
  ExteriorRoof,                           !- Intended Surface Type
  Metal Building;                         !- Standards Construction Type

OS:Material:NoMass,
  {752b0464-6c58-40fd-a876-d4a816f727b7}, !- Handle
  Typical Insulation R-39.6,              !- Name
  Smooth,                                 !- Roughness
  6.97475842220717,                       !- Thermal Resistance {m2-K/W}
  0.9,                                    !- Thermal Absorptance
  0.7,                                    !- Solar Absorptance
  0.7;                                    !- Visible Absorptance

OS:Construction,
  {55f0bc48-1a3e-4ca3-8df2-af4502cf7785}, !- Handle
  Typical Mass Wall CZ1 R-2,              !- Name
  ,                                       !- Surface Rendering Name
  {b4c63a0f-5b63-4181-8892-f38a26d2b0c0}, !- Layer 1
  {84c0b9fc-c433-49d2-8e82-9d31b33c2530}, !- Layer 2
  {8b827df9-40a3-4c36-84a8-7f05e4743a3d}, !- Layer 3
  {b78cfebe-fbe7-4195-8cde-d4827ffe379d}; !- Layer 4

OS:StandardsInformation:Construction,
  {90ac0c55-3783-47cc-aa35-dc4d1ce2cdfb}, !- Handle
  {55f0bc48-1a3e-4ca3-8df2-af4502cf7785}, !- Construction Name
  ExteriorWall,                           !- Intended Surface Type
  Mass;                                   !- Standards Construction Type

OS:Material,
  {b4c63a0f-5b63-4181-8892-f38a26d2b0c0}, !- Handle
  1IN Stucco,                             !- Name
  Smooth,                                 !- Roughness
  0.0253,                                 !- Thickness {m}
  0.691799999999999,                      !- Conductivity {W/m-K}
  1858,                                   !- Density {kg/m3}
  836.999999999999,                       !- Specific Heat {J/kg-K}
  0.9,                                    !- Thermal Absorptance
  0.7,                                    !- Solar Absorptance
  0.92;                                   !- Visible Absorptance

OS:Material,
  {84c0b9fc-c433-49d2-8e82-9d31b33c2530}, !- Handle
  8IN CONCRETE HW RefBldg,                !- Name
  Rough,                                  !- Roughness
  0.2032,                                 !- Thickness {m}
  1.311,                                  !- Conductivity {W/m-K}
  2240,                                   !- Density {kg/m3}
  836.800000000001,                       !- Specific Heat {J/kg-K}
  0.9,                                    !- Thermal Absorptance
  0.7,                                    !- Solar Absorptance
  0.7;                                    !- Visible Absorptance

OS:Material:NoMass,
  {8b827df9-40a3-4c36-84a8-7f05e4743a3d}, !- Handle
  Typical Insulation R-4.34,              !- Name
  Smooth,                                 !- Roughness
  0.763553060521299,                      !- Thermal Resistance {m2-K/W}
  0.9,                                    !- Thermal Absorptance
  0.7,                                    !- Solar Absorptance
  0.7;                                    !- Visible Absorptance

OS:Material,
  {b78cfebe-fbe7-4195-8cde-d4827ffe379d}, !- Handle
  1/2IN Gypsum,                           !- Name
  Smooth,                                 !- Roughness
  0.0127,                                 !- Thickness {m}
  0.16,                                   !- Conductivity {W/m-K}
  784.9,                                  !- Density {kg/m3}
  830.000000000001,                       !- Specific Heat {J/kg-K}
  0.9,                                    !- Thermal Absorptance
  0.4,                                    !- Solar Absorptance
  0.4;                                    !- Visible Absorptance

OS:Construction,
  {fe51cd5a-92c8-490b-8050-463e57505b66}, !- Handle
  Mass Wall CZ1 R-7,                      !- Name
  ,                                       !- Surface Rendering Name
  {b4c63a0f-5b63-4181-8892-f38a26d2b0c0}, !- Layer 1
  {84c0b9fc-c433-49d2-8e82-9d31b33c2530}, !- Layer 2
  {8b827df9-40a3-4c36-84a8-7f05e4743a3d}, !- Layer 3
  {b78cfebe-fbe7-4195-8cde-d4827ffe379d}; !- Layer 4

OS:StandardsInformation:Construction,
  {a76cf5fd-1af7-48c4-a3d6-f92fbc7138bb}, !- Handle
  {fe51cd5a-92c8-490b-8050-463e57505b66}, !- Construction Name
  ExteriorWall,                           !- Intended Surface Type
  Mass;                                   !- Standards Construction Type

OS:Construction,
  {933710c7-c8b5-4ec8-aa6c-8cece83bcc62}, !- Handle
  Mass Wall CZ1 R-12,                     !- Name
  ,                                       !- Surface Rendering Name
  {b4c63a0f-5b63-4181-8892-f38a26d2b0c0}, !- Layer 1
  {84c0b9fc-c433-49d2-8e82-9d31b33c2530}, !- Layer 2
  {bc0941c3-2a86-42cf-8367-db58d4706df5}, !- Layer 3
  {b78cfebe-fbe7-4195-8cde-d4827ffe379d}; !- Layer 4

OS:StandardsInformation:Construction,
  {00faa015-d8ed-42de-85e1-b87ea8117223}, !- Handle
  {933710c7-c8b5-4ec8-aa6c-8cece83bcc62}, !- Construction Name
  ExteriorWall,                           !- Intended Surface Type
  Mass;                                   !- Standards Construction Type

OS:Material:NoMass,
  {bc0941c3-2a86-42cf-8367-db58d4706df5}, !- Handle
  Typical Insulation R-9.34,              !- Name
  Smooth,                                 !- Roughness
  1.64410397893283,                       !- Thermal Resistance {m2-K/W}
  0.9,                                    !- Thermal Absorptance
  0.7,                                    !- Solar Absorptance
  0.7;                                    !- Visible Absorptance

OS:Construction,
  {9887683c-5774-4978-af68-9c3d17cc2721}, !- Handle
  Mass Wall CZ1 R-17,                     !- Name
  ,                                       !- Surface Rendering Name
  {b4c63a0f-5b63-4181-8892-f38a26d2b0c0}, !- Layer 1
  {84c0b9fc-c433-49d2-8e82-9d31b33c2530}, !- Layer 2
  {c6d71c05-cf61-40b8-bad4-8ab1bc6aa4c0}, !- Layer 3
  {b78cfebe-fbe7-4195-8cde-d4827ffe379d}; !- Layer 4

OS:StandardsInformation:Construction,
  {2f33421c-c763-4a6a-a75f-619661797dc1}, !- Handle
  {9887683c-5774-4978-af68-9c3d17cc2721}, !- Construction Name
  ExteriorWall,                           !- Intended Surface Type
  Mass;                                   !- Standards Construction Type

OS:Material:NoMass,
  {c6d71c05-cf61-40b8-bad4-8ab1bc6aa4c0}, !- Handle
  Typical Insulation R-14.34,             !- Name
  Smooth,                                 !- Roughness
  2.52465489734436,                       !- Thermal Resistance {m2-K/W}
  0.9,                                    !- Thermal Absorptance
  0.7,                                    !- Solar Absorptance
  0.7;                                    !- Visible Absorptance

OS:Construction,
  {557d4d53-92f5-4c93-af7b-66724811d7d6}, !- Handle
  Mass Wall CZ1 R-22,                     !- Name
  ,                                       !- Surface Rendering Name
  {b4c63a0f-5b63-4181-8892-f38a26d2b0c0}, !- Layer 1
  {84c0b9fc-c433-49d2-8e82-9d31b33c2530}, !- Layer 2
  {243094dd-7557-4a06-bb27-40497477470c}, !- Layer 3
  {b78cfebe-fbe7-4195-8cde-d4827ffe379d}; !- Layer 4

OS:StandardsInformation:Construction,
  {1f4c0d2e-efdb-40ca-9940-88a8adcc12e4}, !- Handle
  {557d4d53-92f5-4c93-af7b-66724811d7d6}, !- Construction Name
  ExteriorWall,                           !- Intended Surface Type
  Mass;                                   !- Standards Construction Type

OS:Material:NoMass,
  {243094dd-7557-4a06-bb27-40497477470c}, !- Handle
  Typical Insulation R-19.34,             !- Name
  Smooth,                                 !- Roughness
  3.40520581575589,                       !- Thermal Resistance {m2-K/W}
  0.9,                                    !- Thermal Absorptance
  0.7,                                    !- Solar Absorptance
  0.7;                                    !- Visible Absorptance

OS:Construction,
  {8529e3fa-2f70-404b-a9b9-e94d9b2879d6}, !- Handle
  Typical Metal Wall CZ1 R-9,             !- Name
  ,                                       !- Surface Rendering Name
  {2b7fbe68-1dda-4f3d-9f6f-c4f9a33cd0e7}, !- Layer 1
  {4dad6d0d-471d-4510-93d0-7eeed54ab401}, !- Layer 2
  {b78cfebe-fbe7-4195-8cde-d4827ffe379d}; !- Layer 3

OS:StandardsInformation:Construction,
  {b618de71-65d9-4e5a-bbfc-0a29f529220a}, !- Handle
  {8529e3fa-2f70-404b-a9b9-e94d9b2879d6}, !- Construction Name
  ExteriorWall,                           !- Intended Surface Type
  Metal Building;                         !- Standards Construction Type

OS:Material,
  {2b7fbe68-1dda-4f3d-9f6f-c4f9a33cd0e7}, !- Handle
  Metal Siding,                           !- Name
  Smooth,                                 !- Roughness
  0.0015,                                 !- Thickness {m}
  44.9599999999999,                       !- Conductivity {W/m-K}
  7688.86,                                !- Density {kg/m3}
  410,                                    !- Specific Heat {J/kg-K}
  0.9,                                    !- Thermal Absorptance
  0.7,                                    !- Solar Absorptance
  0.7;                                    !- Visible Absorptance

OS:Material:NoMass,
  {4dad6d0d-471d-4510-93d0-7eeed54ab401}, !- Handle
  Typical Insulation R-7.55,              !- Name
  Smooth,                                 !- Roughness
  1.32939518160909,                       !- Thermal Resistance {m2-K/W}
  0.9,                                    !- Thermal Absorptance
  0.7,                                    !- Solar Absorptance
  0.7;                                    !- Visible Absorptance

OS:Construction,
  {cd6af91c-b3dd-4e93-942e-543644713d7a}, !- Handle
  Metal Wall CZ1 R-14,                    !- Name
  ,                                       !- Surface Rendering Name
  {2b7fbe68-1dda-4f3d-9f6f-c4f9a33cd0e7}, !- Layer 1
  {e9479a89-ad39-456a-806d-3a41ebd7ab62}, !- Layer 2
  {b78cfebe-fbe7-4195-8cde-d4827ffe379d}; !- Layer 3

OS:StandardsInformation:Construction,
  {4fa09206-1a10-4a61-ba22-cf84a09e0dbf}, !- Handle
  {cd6af91c-b3dd-4e93-942e-543644713d7a}, !- Construction Name
  ExteriorWall,                           !- Intended Surface Type
  Metal Building;                         !- Standards Construction Type

OS:Material:NoMass,
  {e9479a89-ad39-456a-806d-3a41ebd7ab62}, !- Handle
  Typical Insulation R-12.55,             !- Name
  Smooth,                                 !- Roughness
  2.20994610002062,                       !- Thermal Resistance {m2-K/W}
  0.9,                                    !- Thermal Absorptance
  0.7,                                    !- Solar Absorptance
  0.7;                                    !- Visible Absorptance

OS:Construction,
  {d1ea6751-a338-4ff0-9888-80443daecc0e}, !- Handle
  Metal Wall CZ1 R-19,                    !- Name
  ,                                       !- Surface Rendering Name
  {2b7fbe68-1dda-4f3d-9f6f-c4f9a33cd0e7}, !- Layer 1
  {d74e8f54-f70e-4693-811c-f2bb56ae5b15}, !- Layer 2
  {b78cfebe-fbe7-4195-8cde-d4827ffe379d}; !- Layer 3

OS:StandardsInformation:Construction,
  {4ec75a95-c864-4f4f-95ec-e935fb1d7339}, !- Handle
  {d1ea6751-a338-4ff0-9888-80443daecc0e}, !- Construction Name
  ExteriorWall,                           !- Intended Surface Type
  Metal Building;                         !- Standards Construction Type

OS:Material:NoMass,
  {d74e8f54-f70e-4693-811c-f2bb56ae5b15}, !- Handle
  Typical Insulation R-17.55,             !- Name
  Smooth,                                 !- Roughness
  3.09049701843215,                       !- Thermal Resistance {m2-K/W}
  0.9,                                    !- Thermal Absorptance
  0.7,                                    !- Solar Absorptance
  0.7;                                    !- Visible Absorptance

OS:Construction,
  {a98ff77f-8014-402d-96b0-cb89cd615c8c}, !- Handle
  Metal Wall CZ1 R-24,                    !- Name
  ,                                       !- Surface Rendering Name
  {2b7fbe68-1dda-4f3d-9f6f-c4f9a33cd0e7}, !- Layer 1
  {aa5bfd21-ed1d-4e34-a9c1-ae086ddc655c}, !- Layer 2
  {b78cfebe-fbe7-4195-8cde-d4827ffe379d}; !- Layer 3

OS:StandardsInformation:Construction,
  {397e0f10-ba73-4ffb-8a35-0579d97a4873}, !- Handle
  {a98ff77f-8014-402d-96b0-cb89cd615c8c}, !- Construction Name
  ExteriorWall,                           !- Intended Surface Type
  Metal Building;                         !- Standards Construction Type

OS:Material:NoMass,