
OS:Version,
  {930d102d-64c6-4d52-b074-853f3c658905}, !- Handle
  3.0.0;                                  !- Version Identifier

OS:Schedule:Ruleset,
  {a50b6d9a-54d9-4adb-b6fe-8c3059b4ecb6}, !- Handle
  Office_Breakroom_Large_ACTIVITY_SPEED,  !- Name
  ,                                       !- Schedule Type Limits Name
  {d0b3d43c-5652-4130-b23c-6807c5f083a4}, !- Default Day Schedule Name
  {ae4ebeeb-5e5a-43c8-8a09-e888d781fa65}, !- Summer Design Day Schedule Name
  {aa533549-75a8-4445-811a-eb36c06bf4fc}; !- Winter Design Day Schedule Name

OS:Schedule:Day,
  {d0b3d43c-5652-4130-b23c-6807c5f083a4}, !- Handle
  Schedule Day 1,                         !- Name
  ,                                       !- Schedule Type Limits Name
  ,                                       !- Interpolate to Timestep
  24,                                     !- Hour 1
  0,                                      !- Minute 1
  0;                                      !- Value Until Time 1

OS:Schedule:Rule,
  {f44522d8-6ad6-48fe-a47d-7d1a6b571b0d}, !- Handle
  Schedule Rule 1,                        !- Name
  {a50b6d9a-54d9-4adb-b6fe-8c3059b4ecb6}, !- Schedule Ruleset Name
  2,                                      !- Rule Order
  {228a54f6-ddae-494d-bbd4-0810443feaff}, !- Day Schedule Name
  ,                                       !- Apply Sunday
  ,                                       !- Apply Monday
  ,                                       !- Apply Tuesday
  ,                                       !- Apply Wednesday
  ,                                       !- Apply Thursday
  ,                                       !- Apply Friday
  Yes,                                    !- Apply Saturday
  DateRange,                              !- Date Specification Type
  1,                                      !- Start Month
  1,                                      !- Start Day
  12,                                     !- End Month
  31;                                     !- End Day

OS:Schedule:Day,
  {228a54f6-ddae-494d-bbd4-0810443feaff}, !- Handle
  Office_Breakroom_Large_ACTIVITY_SPEED Sat Day, !- Name
  ,                                       !- Schedule Type Limits Name
  ,                                       !- Interpolate to Timestep
  24,                                     !- Hour 1
  0,                                      !- Minute 1
  120;                                    !- Value Until Time 1

OS:Schedule:Day,
  {c5bcc5de-0bdf-4ad7-a101-6cbb2cca36c3}, !- Handle
  Schedule Day 2,                         !- Name
  ,                                       !- Schedule Type Limits Name
  ,                                       !- Interpolate to Timestep
  24,                                     !- Hour 1
  0,                                      !- Minute 1
  0;                                      !- Value Until Time 1

OS:Schedule:Day,
  {ae4ebeeb-5e5a-43c8-8a09-e888d781fa65}, !- Handle
  Office_Breakroom_Large_ACTIVITY_SPEED Summer Design Day, !- Name
  ,                                       !- Schedule Type Limits Name
  ,                                       !- Interpolate to Timestep
  24,                                     !- Hour 1
  0,                                      !- Minute 1
  120;                                    !- Value Until Time 1

OS:Schedule:Rule,
  {1ff14103-68a4-446b-be79-dd49d69514df}, !- Handle
  Schedule Rule 2,                        !- Name
  {a50b6d9a-54d9-4adb-b6fe-8c3059b4ecb6}, !- Schedule Ruleset Name
  1,                                      !- Rule Order
  {3a20cd05-9bfb-4f3f-a6e7-0ce04f827b85}, !- Day Schedule Name
  Yes,                                    !- Apply Sunday
  ,                                       !- Apply Monday
  ,                                       !- Apply Tuesday
  ,                                       !- Apply Wednesday
  ,                                       !- Apply Thursday
  ,                                       !- Apply Friday
  ,                                       !- Apply Saturday
  DateRange,                              !- Date Specification Type
  1,                                      !- Start Month
  1,                                      !- Start Day
  12,                                     !- End Month
  31;                                     !- End Day

OS:Schedule:Day,
  {3a20cd05-9bfb-4f3f-a6e7-0ce04f827b85}, !- Handle
  Office_Breakroom_Large_ACTIVITY_SPEED Sun Day, !- Name
  ,                                       !- Schedule Type Limits Name
  ,                                       !- Interpolate to Timestep
  24,                                     !- Hour 1
  0,                                      !- Minute 1
  120;                                    !- Value Until Time 1

OS:Schedule:Rule,
  {fe3a26a2-07b3-4376-98de-c52b6988f341}, !- Handle
  Schedule Rule 3,                        !- Name
  {a50b6d9a-54d9-4adb-b6fe-8c3059b4ecb6}, !- Schedule Ruleset Name
  0,                                      !- Rule Order
  {1b70230d-2e95-4abe-9a84-6c616785e1ef}, !- Day Schedule Name
  ,                                       !- Apply Sunday
  Yes,                                    !- Apply Monday
  Yes,                                    !- Apply Tuesday
  Yes,                                    !- Apply Wednesday
  Yes,                                    !- Apply Thursday
  Yes,                                    !- Apply Friday
  ,                                       !- Apply Saturday
  DateRange,                              !- Date Specification Type
  1,                                      !- Start Month
  1,                                      !- Start Day
  12,                                     !- End Month
  31;                                     !- End Day

OS:Schedule:Day,
  {1b70230d-2e95-4abe-9a84-6c616785e1ef}, !- Handle
  Office_Breakroom_Large_ACTIVITY_SPEED Wkdy Day, !- Name
  ,                                       !- Schedule Type Limits Name
  ,                                       !- Interpolate to Timestep
  24,                                     !- Hour 1
  0,                                      !- Minute 1
  120;                                    !- Value Until Time 1

OS:Schedule:Day,
  {9042abe5-5225-49c4-bb95-f2784d21e921}, !- Handle
  Schedule Day 3,                         !- Name
  ,                                       !- Schedule Type Limits Name
  ,                                       !- Interpolate to Timestep
  24,                                     !- Hour 1
  0,                                      !- Minute 1
  0;                                      !- Value Until Time 1

OS:Schedule:Day,
  {aa533549-75a8-4445-811a-eb36c06bf4fc}, !- Handle
  Office_Breakroom_Large_ACTIVITY_SPEED Winter Design Day, !- Name
  ,                                       !- Schedule Type Limits Name
  ,                                       !- Interpolate to Timestep
  24,                                     !- Hour 1
  0,                                      !- Minute 1
  120;                                    !- Value Until Time 1

OS:Schedule:Ruleset,
  {6575085f-f168-42bb-87ce-f57be3a9d78e}, !- Handle
  Office_Breakroom_Large_CLGSETP_SPEED,   !- Name
  ,                                       !- Schedule Type Limits Name
  {60c9b684-e9e1-408e-a2c6-35df72a6f3e6}, !- Default Day Schedule Name
  {0b6892d1-7479-47c1-b558-408203889640}, !- Summer Design Day Schedule Name
  {4b4b0b46-f80f-470e-bec4-f52aee77907e}; !- Winter Design Day Schedule Name

OS:Schedule:Day,
  {60c9b684-e9e1-408e-a2c6-35df72a6f3e6}, !- Handle
  Schedule Day 4,                         !- Name
  ,                                       !- Schedule Type Limits Name
  ,                                       !- Interpolate to Timestep
  24,                                     !- Hour 1
  0,                                      !- Minute 1
  0;                                      !- Value Until Time 1

OS:Schedule:Rule,
  {9e494e97-7c32-4d49-970f-395733cebd40}, !- Handle
  Schedule Rule 4,                        !- Name
  {6575085f-f168-42bb-87ce-f57be3a9d78e}, !- Schedule Ruleset Name
  2,                                      !- Rule Order
  {f521ded5-1430-434a-af1a-2cf4c89f5ae6}, !- Day Schedule Name
  ,                                       !- Apply Sunday
  ,                                       !- Apply Monday
  ,                                       !- Apply Tuesday
  ,                                       !- Apply Wednesday
  ,                                       !- Apply Thursday
  ,                                       !- Apply Friday
  Yes,                                    !- Apply Saturday
  DateRange,                              !- Date Specification Type
  1,                                      !- Start Month
  1,                                      !- Start Day
  12,                                     !- End Month
  31;                                     !- End Day

OS:Schedule:Day,
  {f521ded5-1430-434a-af1a-2cf4c89f5ae6}, !- Handle
  Office_Breakroom_Large_CLGSETP_SPEED Sat Day, !- Name
  ,                                       !- Schedule Type Limits Name
  ,                                       !- Interpolate to Timestep
  6,                                      !- Hour 1
  0,                                      !- Minute 1
  25.6,                                   !- Value Until Time 1
  17,                                     !- Hour 2
  0,                                      !- Minute 2
  23.9,                                   !- Value Until Time 2
  24,                                     !- Hour 3
  0,                                      !- Minute 3
  25.6;                                   !- Value Until Time 3

OS:Schedule:Day,
  {258018ad-fd02-4e6f-bc0a-6a96778bb711}, !- Handle
  Schedule Day 5,                         !- Name
  ,                                       !- Schedule Type Limits Name
  ,                                       !- Interpolate to Timestep
  24,                                     !- Hour 1
  0,                                      !- Minute 1
  0;                                      !- Value Until Time 1

OS:Schedule:Day,
  {0b6892d1-7479-47c1-b558-408203889640}, !- Handle
  Office_Breakroom_Large_CLGSETP_SPEED Summer Design Day, !- Name
  ,                                       !- Schedule Type Limits Name
  ,                                       !- Interpolate to Timestep
  24,                                     !- Hour 1
  0,                                      !- Minute 1
  23.9;                                   !- Value Until Time 1

OS:Schedule:Rule,
  {2d1f467f-f4a4-47bb-8b8c-ca28de4cfac5}, !- Handle
  Schedule Rule 5,                        !- Name
  {6575085f-f168-42bb-87ce-f57be3a9d78e}, !- Schedule Ruleset Name
  1,                                      !- Rule Order
  {42c0f5d5-0ed1-4355-96a5-51d8183824d0}, !- Day Schedule Name
  Yes,                                    !- Apply Sunday
  ,                                       !- Apply Monday
  ,                                       !- Apply Tuesday
  ,                                       !- Apply Wednesday
  ,                                       !- Apply Thursday
  ,                                       !- Apply Friday
  ,                                       !- Apply Saturday
  DateRange,                              !- Date Specification Type
  1,                                      !- Start Month
  1,                                      !- Start Day
  12,                                     !- End Month
  31;                                     !- End Day

OS:Schedule:Day,
  {42c0f5d5-0ed1-4355-96a5-51d8183824d0}, !- Handle
  Office_Breakroom_Large_CLGSETP_SPEED Sun Day, !- Name
  ,                                       !- Schedule Type Limits Name
  ,                                       !- Interpolate to Timestep
  24,                                     !- Hour 1
  0,                                      !- Minute 1
  25.6;                                   !- Value Until Time 1

OS:Schedule:Rule,
  {9e3c92b8-2aa8-4a13-88b8-04dd53cf6abe}, !- Handle
  Schedule Rule 6,                        !- Name
  {6575085f-f168-42bb-87ce-f57be3a9d78e}, !- Schedule Ruleset Name
  0,                                      !- Rule Order
  {cd68cee4-e615-44cd-b5b9-a0c27af84109}, !- Day Schedule Name
  ,                                       !- Apply Sunday
  Yes,                                    !- Apply Monday
  Yes,                                    !- Apply Tuesday
  Yes,                                    !- Apply Wednesday
  Yes,                                    !- Apply Thursday
  Yes,                                    !- Apply Friday
  ,                                       !- Apply Saturday
  DateRange,                              !- Date Specification Type
  1,                                      !- Start Month
  1,                                      !- Start Day
  12,                                     !- End Month
  31;                                     !- End Day

OS:Schedule:Day,
  {cd68cee4-e615-44cd-b5b9-a0c27af84109}, !- Handle
  Office_Breakroom_Large_CLGSETP_SPEED Wkdy Day, !- Name
  ,                                       !- Schedule Type Limits Name
  ,                                       !- Interpolate to Timestep
  6,                                      !- Hour 1
  0,                                      !- Minute 1
  25.6,                                   !- Value Until Time 1
  22,                                     !- Hour 2
  0,                                      !- Minute 2
  23.9,                                   !- Value Until Time 2
  24,                                     !- Hour 3
  0,                                      !- Minute 3
  25.6;                                   !- Value Until Time 3

OS:Schedule:Day,
  {e88e8d78-2347-49b0-ac6f-3b075b2524c2}, !- Handle
  Schedule Day 6,                         !- Name
  ,                                       !- Schedule Type Limits Name
  ,                                       !- Interpolate to Timestep
  24,                                     !- Hour 1
  0,                                      !- Minute 1
  0;                                      !- Value Until Time 1

OS:Schedule:Day,
  {4b4b0b46-f80f-470e-bec4-f52aee77907e}, !- Handle
  Office_Breakroom_Large_CLGSETP_SPEED Winter Design Day, !- Name
  ,                                       !- Schedule Type Limits Name
  ,                                       !- Interpolate to Timestep
  24,                                     !- Hour 1
  0,                                      !- Minute 1
  23.9;                                   !- Value Until Time 1

OS:Schedule:Ruleset,
  {7737b908-6c7d-463f-8c10-b6a5656f37a9}, !- Handle
  Office_Breakroom_Large_EQUIP_2010_SPEED, !- Name
  ,                                       !- Schedule Type Limits Name
  {e0bc2794-f04a-4a45-9486-949a318ec152}, !- Default Day Schedule Name
  {be7e4de5-39a6-4303-907b-54a7a0e05a38}, !- Summer Design Day Schedule Name
  {d1bb5eb2-608e-4e27-9332-92726196f9ce}; !- Winter Design Day Schedule Name

OS:Schedule:Day,
  {e0bc2794-f04a-4a45-9486-949a318ec152}, !- Handle
  Schedule Day 7,                         !- Name
  ,                                       !- Schedule Type Limits Name
  ,                                       !- Interpolate to Timestep
  24,                                     !- Hour 1
  0,                                      !- Minute 1
  0;                                      !- Value Until Time 1

OS:Schedule:Rule,
  {65248ce1-e67c-4d85-9fa2-512c42c4ccba}, !- Handle
  Schedule Rule 7,                        !- Name
  {7737b908-6c7d-463f-8c10-b6a5656f37a9}, !- Schedule Ruleset Name
  2,                                      !- Rule Order
  {1823bee0-8010-4785-af91-6246babd9755}, !- Day Schedule Name
  ,                                       !- Apply Sunday
  ,                                       !- Apply Monday
  ,                                       !- Apply Tuesday
  ,                                       !- Apply Wednesday
  ,                                       !- Apply Thursday
  ,                                       !- Apply Friday
  Yes,                                    !- Apply Saturday
  DateRange,                              !- Date Specification Type
  1,                                      !- Start Month
  1,                                      !- Start Day
  12,                                     !- End Month
  31;                                     !- End Day

OS:Schedule:Day,
  {1823bee0-8010-4785-af91-6246babd9755}, !- Handle
  Office_Breakroom_Large_EQUIP_2010_SPEED Sat Day, !- Name
  ,                                       !- Schedule Type Limits Name
  ,                                       !- Interpolate to Timestep
  6,                                      !- Hour 1
  0,                                      !- Minute 1
  0.3,                                    !- Value Until Time 1
  8,                                      !- Hour 2
  0,                                      !- Minute 2
  0.4,                                    !- Value Until Time 2
  12,                                     !- Hour 3
  0,                                      !- Minute 3
  0.5,                                    !- Value Until Time 3
  17,                                     !- Hour 4
  0,                                      !- Minute 4
  0.35,                                   !- Value Until Time 4
  24,                                     !- Hour 5
  0,                                      !- Minute 5
  0.3;                                    !- Value Until Time 5

OS:Schedule:Day,
  {6964efc3-8b0b-4cff-8cb3-286efb0633f5}, !- Handle
  Schedule Day 8,                         !- Name
  ,                                       !- Schedule Type Limits Name
  ,                                       !- Interpolate to Timestep
  24,                                     !- Hour 1
  0,                                      !- Minute 1
  0;                                      !- Value Until Time 1

OS:Schedule:Day,
  {be7e4de5-39a6-4303-907b-54a7a0e05a38}, !- Handle
  Office_Breakroom_Large_EQUIP_2010_SPEED Summer Design Day, !- Name
  ,                                       !- Schedule Type Limits Name
  ,                                       !- Interpolate to Timestep
  24,                                     !- Hour 1
  0,                                      !- Minute 1
  1;                                      !- Value Until Time 1

OS:Schedule:Rule,
  {2b480768-231e-4d67-af7a-157d765df28b}, !- Handle
  Schedule Rule 8,                        !- Name
  {7737b908-6c7d-463f-8c10-b6a5656f37a9}, !- Schedule Ruleset Name
  1,                                      !- Rule Order
  {d8bf9807-9a29-4892-b4fe-535186899702}, !- Day Schedule Name
  Yes,                                    !- Apply Sunday
  ,                                       !- Apply Monday
  ,                                       !- Apply Tuesday
  ,                                       !- Apply Wednesday
  ,                                       !- Apply Thursday
  ,                                       !- Apply Friday
  ,                                       !- Apply Saturday
  DateRange,                              !- Date Specification Type
  1,                                      !- Start Month
  1,                                      !- Start Day
  12,                                     !- End Month
  31;                                     !- End Day

OS:Schedule:Day,
  {d8bf9807-9a29-4892-b4fe-535186899702}, !- Handle
  Office_Breakroom_Large_EQUIP_2010_SPEED Sun Day, !- Name
  ,                                       !- Schedule Type Limits Name
  ,                                       !- Interpolate to Timestep
  24,                                     !- Hour 1
  0,                                      !- Minute 1
  0.3;                                    !- Value Until Time 1

OS:Schedule:Rule,
  {d1c4032b-a507-4cef-9f33-de22d4d9aa7b}, !- Handle
  Schedule Rule 9,                        !- Name
  {7737b908-6c7d-463f-8c10-b6a5656f37a9}, !- Schedule Ruleset Name
  0,                                      !- Rule Order
  {89ff0594-cb46-489b-9f3a-bc933c15bcde}, !- Day Schedule Name
  ,                                       !- Apply Sunday
  Yes,                                    !- Apply Monday
  Yes,                                    !- Apply Tuesday
  Yes,                                    !- Apply Wednesday
  Yes,                                    !- Apply Thursday
  Yes,                                    !- Apply Friday
  ,                                       !- Apply Saturday
  DateRange,                              !- Date Specification Type
  1,                                      !- Start Month
  1,                                      !- Start Day
  12,                                     !- End Month
  31;                                     !- End Day

OS:Schedule:Day,
  {89ff0594-cb46-489b-9f3a-bc933c15bcde}, !- Handle
  Office_Breakroom_Large_EQUIP_2010_SPEED Wkdy Day, !- Name
  ,                                       !- Schedule Type Limits Name
  ,                                       !- Interpolate to Timestep
  8,                                      !- Hour 1
  0,                                      !- Minute 1
  0.4,                                    !- Value Until Time 1
  12,                                     !- Hour 2
  0,                                      !- Minute 2
  0.9,                                    !- Value Until Time 2
  13,                                     !- Hour 3
  0,                                      !- Minute 3
  0.8,                                    !- Value Until Time 3
  17,                                     !- Hour 4
  0,                                      !- Minute 4
  0.9,                                    !- Value Until Time 4
  18,                                     !- Hour 5
  0,                                      !- Minute 5
  0.5,                                    !- Value Until Time 5
  24,                                     !- Hour 6
  0,                                      !- Minute 6
  0.4;                                    !- Value Until Time 6

OS:Schedule:Day,
  {8acbe734-ef4a-41ab-a690-04b96f24afde}, !- Handle
  Schedule Day 9,                         !- Name
  ,                                       !- Schedule Type Limits Name
  ,                                       !- Interpolate to Timestep
  24,                                     !- Hour 1
  0,                                      !- Minute 1
  0;                                      !- Value Until Time 1

OS:Schedule:Day,
  {d1bb5eb2-608e-4e27-9332-92726196f9ce}, !- Handle
  Office_Breakroom_Large_EQUIP_2010_SPEED Winter Design Day, !- Name
  ,                                       !- Schedule Type Limits Name
  ,                                       !- Interpolate to Timestep
  24,                                     !- Hour 1
  0,                                      !- Minute 1
  0;                                      !- Value Until Time 1

OS:Schedule:Ruleset,
  {356c1abb-9b29-449f-9877-42077436a622}, !- Handle
  Office_Breakroom_Large_HTGSETP_SPEED,   !- Name
  ,                                       !- Schedule Type Limits Name
  {31fb843c-b36f-49ea-94a4-e496a485abde}, !- Default Day Schedule Name
  {9c8b8dc8-23b7-4b43-9bbf-e93240e3407f}, !- Summer Design Day Schedule Name
  {f5003751-ac1b-42a2-98ca-958bd43ebfda}; !- Winter Design Day Schedule Name

OS:Schedule:Day,
  {31fb843c-b36f-49ea-94a4-e496a485abde}, !- Handle
  Schedule Day 10,                        !- Name
  ,                                       !- Schedule Type Limits Name
  ,                                       !- Interpolate to Timestep
  24,                                     !- Hour 1
  0,                                      !- Minute 1
  0;                                      !- Value Until Time 1

OS:Schedule:Rule,
  {3c34d6b5-52ce-44de-abbb-f4a3170e9849}, !- Handle
  Schedule Rule 10,                       !- Name
  {356c1abb-9b29-449f-9877-42077436a622}, !- Schedule Ruleset Name
  2,                                      !- Rule Order
  {a5dc17b9-02d7-4abe-9b3c-5eb5527fe05f}, !- Day Schedule Name
  ,                                       !- Apply Sunday
  ,                                       !- Apply Monday
  ,                                       !- Apply Tuesday
  ,                                       !- Apply Wednesday
  ,                                       !- Apply Thursday
  ,                                       !- Apply Friday
  Yes,                                    !- Apply Saturday
  DateRange,                              !- Date Specification Type
  1,                                      !- Start Month
  1,                                      !- Start Day
  12,                                     !- End Month
  31;                                     !- End Day

OS:Schedule:Day,
  {a5dc17b9-02d7-4abe-9b3c-5eb5527fe05f}, !- Handle
  Office_Breakroom_Large_HTGSETP_SPEED Sat Day, !- Name
  ,                                       !- Schedule Type Limits Name
  ,                                       !- Interpolate to Timestep
  6,                                      !- Hour 1
  0,                                      !- Minute 1
  19.4,                                   !- Value Until Time 1
  17,                                     !- Hour 2
  0,                                      !- Minute 2
  21.1,                                   !- Value Until Time 2
  24,                                     !- Hour 3
  0,                                      !- Minute 3
  19.4;                                   !- Value Until Time 3

OS:Schedule:Day,
  {6ae477cd-cd8c-4067-bf4e-d7c3356b07be}, !- Handle
  Schedule Day 11,                        !- Name
  ,                                       !- Schedule Type Limits Name
  ,                                       !- Interpolate to Timestep
  24,                                     !- Hour 1
  0,                                      !- Minute 1
  0;                                      !- Value Until Time 1

OS:Schedule:Day,
  {9c8b8dc8-23b7-4b43-9bbf-e93240e3407f}, !- Handle
  Office_Breakroom_Large_HTGSETP_SPEED Summer Design Day, !- Name
  ,                                       !- Schedule Type Limits Name
  ,                                       !- Interpolate to Timestep
  24,                                     !- Hour 1
  0,                                      !- Minute 1
  21.1;                                   !- Value Until Time 1

OS:Schedule:Rule,
  {693f0be3-33dd-4749-8be2-d586c3791b43}, !- Handle
  Schedule Rule 11,                       !- Name
  {356c1abb-9b29-449f-9877-42077436a622}, !- Schedule Ruleset Name
  1,                                      !- Rule Order
  {bd7f3245-2d6b-49cd-89e8-8678b03a6ff7}, !- Day Schedule Name
  Yes,                                    !- Apply Sunday
  ,                                       !- Apply Monday
  ,                                       !- Apply Tuesday
  ,                                       !- Apply Wednesday
  ,                                       !- Apply Thursday
  ,                                       !- Apply Friday
  ,                                       !- Apply Saturday
  DateRange,                              !- Date Specification Type
  1,                                      !- Start Month
  1,                                      !- Start Day
  12,                                     !- End Month
  31;                                     !- End Day

OS:Schedule:Day,
  {bd7f3245-2d6b-49cd-89e8-8678b03a6ff7}, !- Handle
  Office_Breakroom_Large_HTGSETP_SPEED Sun Day, !- Name
  ,                                       !- Schedule Type Limits Name
  ,                                       !- Interpolate to Timestep
  24,                                     !- Hour 1
  0,                                      !- Minute 1
  19.4;                                   !- Value Until Time 1

OS:Schedule:Rule,
  {69d89e8d-ae25-41bd-948a-0b8a0ce62a5a}, !- Handle
  Schedule Rule 12,                       !- Name
  {356c1abb-9b29-449f-9877-42077436a622}, !- Schedule Ruleset Name
  0,                                      !- Rule Order
  {510a13ff-a5d8-4e4d-8338-7f3043ba4e3a}, !- Day Schedule Name
  ,                                       !- Apply Sunday
  Yes,                                    !- Apply Monday
  Yes,                                    !- Apply Tuesday
  Yes,                                    !- Apply Wednesday
  Yes,                                    !- Apply Thursday
  Yes,                                    !- Apply Friday
  ,                                       !- Apply Saturday
  DateRange,                              !- Date Specification Type
  1,                                      !- Start Month
  1,                                      !- Start Day
  12,                                     !- End Month
  31;                                     !- End Day

OS:Schedule:Day,
  {510a13ff-a5d8-4e4d-8338-7f3043ba4e3a}, !- Handle
  Office_Breakroom_Large_HTGSETP_SPEED Wkdy Day, !- Name
  ,                                       !- Schedule Type Limits Name
  ,                                       !- Interpolate to Timestep
  6,                                      !- Hour 1
  0,                                      !- Minute 1
  19.4,                                   !- Value Until Time 1
  22,                                     !- Hour 2
  0,                                      !- Minute 2
  21.1,                                   !- Value Until Time 2
  24,                                     !- Hour 3
  0,                                      !- Minute 3
  19.4;                                   !- Value Until Time 3

OS:Schedule:Day,
  {166dac70-3a93-4181-9b62-2a540c9dacf7}, !- Handle