
OS:Version,
  {0c184c5c-7fb0-4586-a319-17fb53d8a42d}, !- Handle
  3.0.0;                                  !- Version Identifier

OS:Construction,
  {85365558-f74b-4fc3-8632-c464df234d5d}, !- Handle
  Typical Attic & Other Roof CZ1 R-29,    !- Name
  ,                                       !- Surface Rendering Name
  {e9098839-dd35-464a-a775-e7220c69142d}, !- Layer 1
  {fa50ed7f-56cc-42c8-be97-e594fb3f2a3c}; !- Layer 2

OS:StandardsInformation:Construction,
  {1611cbd4-5bb6-4ae1-8b80-e55b0f659365}, !- Handle
  {85365558-f74b-4fc3-8632-c464df234d5d}, !- Construction Name
  AtticFloor,                             !- Intended Surface Type
  WoodFramed;                             !- Standards Construction Type

OS:Material,
  {e9098839-dd35-464a-a775-e7220c69142d}, !- Handle
  5/8 in. Gypsum Board,                   !- Name
  MediumSmooth,                           !- Roughness
  0.0159,                                 !- Thickness {m}
  0.159999999999999,                      !- Conductivity {W/m-K}
  799.999999999999,                       !- Density {kg/m3}
  1090,                                   !- Specific Heat {J/kg-K}
  0.9,                                    !- Thermal Absorptance
  0.7,                                    !- Solar Absorptance
  0.7;                                    !- Visible Absorptance

OS:Material:NoMass,
  {fa50ed7f-56cc-42c8-be97-e594fb3f2a3c}, !- Handle
  Typical Insulation R-27.78,             !- Name
  Smooth,                                 !- Roughness
  4.89189838823363,                       !- Thermal Resistance {m2-K/W}
  0.9,                                    !- Thermal Absorptance
  0.7,                                    !- Solar Absorptance
  0.7;                                    !- Visible Absorptance

OS:Construction,
  {529fc9da-c73c-4e17-abb7-8443af2876d7}, !- Handle
  Attic & Other Roof CZ1 R-39,            !- Name
  ,                                       !- Surface Rendering Name
  {e9098839-dd35-464a-a775-e7220c69142d}, !- Layer 1
  {fc0e9f66-41c1-4649-8c89-55981ecd0ac8}; !- Layer 2

OS:StandardsInformation:Construction,
  {3f867e20-b85c-4064-8465-551f1b591b39}, !- Handle
  {529fc9da-c73c-4e17-abb7-8443af2876d7}, !- Construction Name
  AtticFloor,                             !- Intended Surface Type
  WoodFramed;                             !- Standards Construction Type

OS:Material:NoMass,
  {fc0e9f66-41c1-4649-8c89-55981ecd0ac8}, !- Handle
  Typical Insulation R-37.78,             !- Name
  Smooth,                                 !- Roughness
  6.65300022505669,                       !- Thermal Resistance {m2-K/W}
  0.9,                                    !- Thermal Absorptance
  0.7,                                    !- Solar Absorptance
  0.7;                                    !- Visible Absorptance

OS:Construction,
  {344f32a8-07a3-43e0-8e5a-ebef63ded366}, !- Handle
  Attic & Other Roof CZ1 R-44,            !- Name
  ,                                       !- Surface Rendering Name
  {e9098839-dd35-464a-a775-e7220c69142d}, !- Layer 1
  {5445866f-4fb9-4aa9-96d7-af94c44bd3ed}; !- Layer 2

OS:StandardsInformation:Construction,
  {d53c8089-4a94-40e4-bde9-5c5015c672eb}, !- Handle
  {344f32a8-07a3-43e0-8e5a-ebef63ded366}, !- Construction Name
  AtticFloor,                             !- Intended Surface Type
  WoodFramed;                             !- Standards Construction Type

OS:Material:NoMass,
  {5445866f-4fb9-4aa9-96d7-af94c44bd3ed}, !- Handle
  Typical Insulation R-42.78,             !- Name
  Smooth,                                 !- Roughness
  7.53355114346822,                       !- Thermal Resistance {m2-K/W}
  0.9,                                    !- Thermal Absorptance
  0.7,                                    !- Solar Absorptance
  0.7;                                    !- Visible Absorptance

OS:Construction,
  {311b31cf-bf96-4af5-90bb-12251ba73634}, !- Handle
  Attic & Other Roof CZ1 R-49,            !- Name
  ,                                       !- Surface Rendering Name
  {e9098839-dd35-464a-a775-e7220c69142d}, !- Layer 1
  {6d67963b-d294-4bae-be03-239f3f46eb6b}; !- Layer 2

OS:StandardsInformation:Construction,
  {0c05eb1d-f934-4dcf-9473-8a96c8c2b1c2}, !- Handle
  {311b31cf-bf96-4af5-90bb-12251ba73634}, !- Construction Name
  AtticFloor,                             !- Intended Surface Type
  WoodFramed;                             !- Standards Construction Type

OS:Material:NoMass,
  {6d67963b-d294-4bae-be03-239f3f46eb6b}, !- Handle
  Typical Insulation R-47.78,             !- Name
  Smooth,                                 !- Roughness
  8.41410206187975,                       !- Thermal Resistance {m2-K/W}
  0.9,                                    !- Thermal Absorptance
  0.7,                                    !- Solar Absorptance
  0.7;                                    !- Visible Absorptance

OS:Construction,
  {0560ee98-cbb3-45fc-af95-08ff08c3fc55}, !- Handle
  Attic & Other Roof CZ1 R-54,            !- Name
  ,                                       !- Surface Rendering Name
  {e9098839-dd35-464a-a775-e7220c69142d}, !- Layer 1
  {2e292cb5-c7b6-4f14-af99-eedd8b7cea48}; !- Layer 2

OS:StandardsInformation:Construction,
  {c69d8c56-5efb-43fb-8d67-58fa20e3ef57}, !- Handle
  {0560ee98-cbb3-45fc-af95-08ff08c3fc55}, !- Construction Name
  AtticFloor,                             !- Intended Surface Type
  WoodFramed;                             !- Standards Construction Type

OS:Material:NoMass,
  {2e292cb5-c7b6-4f14-af99-eedd8b7cea48}, !- Handle
  Typical Insulation R-52.78,             !- Name
  Smooth,                                 !- Roughness
  9.29465298029128,                       !- Thermal Resistance {m2-K/W}
  0.9,                                    !- Thermal Absorptance
  0.7,                                    !- Solar Absorptance
  0.7;                                    !- Visible Absorptance

OS:Construction,
  {6fb1c01b-ef8d-46a2-9ddd-86b9b718180f}, !- Handle
  Typical IEAD Roof CZ1 R-16,             !- Name
  ,                                       !- Surface Rendering Name
  {f4563b3e-3a87-4d5d-bdbd-d4aecd039f31}, !- Layer 1
  {1a337d37-21c4-4ed3-bcd7-8e5657db72b9}, !- Layer 2
  {3c1cbd78-5771-4180-a3f1-38e81c577ad8}; !- Layer 3

OS:StandardsInformation:Construction,
  {7f943a99-74c8-4fa1-b8d0-307fbb71721e}, !- Handle
  {6fb1c01b-ef8d-46a2-9ddd-86b9b718180f}, !- Construction Name
  ExteriorRoof,                           !- Intended Surface Type
  IEAD;                                   !- Standards Construction Type

OS:Material,
  {f4563b3e-3a87-4d5d-bdbd-d4aecd039f31}, !- Handle
  Roof Membrane - Highly Reflective,      !- Name
  VeryRough,                              !- Roughness
  0.0095,                                 !- Thickness {m}
  0.16,                                   !- Conductivity {W/m-K}
  1121.29,                                !- Density {kg/m3}
  1460,                                   !- Specific Heat {J/kg-K}
  0.75,                                   !- Thermal Absorptance
  0.45,                                   !- Solar Absorptance
  0.7;                                    !- Visible Absorptance

OS:Material:NoMass,
  {1a337d37-21c4-4ed3-bcd7-8e5657db72b9}, !- Handle
  Typical Insulation R-14.76,             !- Name
  Smooth,                                 !- Roughness
  2.59864112987226,                       !- Thermal Resistance {m2-K/W}
  0.9,                                    !- Thermal Absorptance
  0.7,                                    !- Solar Absorptance
  0.7;                                    !- Visible Absorptance

OS:Material,
  {3c1cbd78-5771-4180-a3f1-38e81c577ad8}, !- Handle
  Metal Roof Surface,                     !- Name
  Smooth,                                 !- Roughness
  0.000799999999999998,                   !- Thickness {m}
  45.2799999999999,                       !- Conductivity {W/m-K}
  7823.99999999999,                       !- Density {kg/m3}
  499.999999999996,                       !- Specific Heat {J/kg-K}
  0.9,                                    !- Thermal Absorptance
  0.7,                                    !- Solar Absorptance
  0.7;                                    !- Visible Absorptance

OS:Construction,
  {17e63359-26ed-4398-9617-4a7e7382cdef}, !- Handle
  IEAD Roof CZ1 R-26,                     !- Name
  ,                                       !- Surface Rendering Name
  {f4563b3e-3a87-4d5d-bdbd-d4aecd039f31}, !- Layer 1
  {db019652-6694-4bae-a0ae-bb862890cbba}, !- Layer 2
  {3c1cbd78-5771-4180-a3f1-38e81c577ad8}; !- Layer 3

OS:StandardsInformation:Construction,
  {3a48abaf-feb7-4758-9309-64237a958583}, !- Handle
  {17e63359-26ed-4398-9617-4a7e7382cdef}, !- Construction Name
  ExteriorRoof,                           !- Intended Surface Type
  IEAD;                                   !- Standards Construction Type

OS:Material:NoMass,
  {db019652-6694-4bae-a0ae-bb862890cbba}, !- Handle
  Typical Insulation R-24.76,             !- Name
  Smooth,                                 !- Roughness
  4.35974296669532,                       !- Thermal Resistance {m2-K/W}
  0.9,                                    !- Thermal Absorptance
  0.7,                                    !- Solar Absorptance
  0.7;                                    !- Visible Absorptance

OS:Construction,
  {69caa621-c23c-46c9-94a9-10480ca910c6}, !- Handle
  IEAD Roof CZ1 R-31,                     !- Name
  ,                                       !- Surface Rendering Name
  {f4563b3e-3a87-4d5d-bdbd-d4aecd039f31}, !- Layer 1
  {1d9e1c3c-3112-4342-b31c-5a8300e45c5c}, !- Layer 2
  {3c1cbd78-5771-4180-a3f1-38e81c577ad8}; !- Layer 3

OS:StandardsInformation:Construction,
  {0b0040d2-06f8-47f3-b5ed-45c64f71f463}, !- Handle
  {69caa621-c23c-46c9-94a9-10480ca910c6}, !- Construction Name
  ExteriorRoof,                           !- Intended Surface Type
  IEAD;                                   !- Standards Construction Type

OS:Material:NoMass,
  {1d9e1c3c-3112-4342-b31c-5a8300e45c5c}, !- Handle
  Typical Insulation R-29.76,             !- Name
  Smooth,                                 !- Roughness
  5.24029388510685,                       !- Thermal Resistance {m2-K/W}
  0.9,                                    !- Thermal Absorptance
  0.7,                                    !- Solar Absorptance
  0.7;                                    !- Visible Absorptance

OS:Construction,
  {bc857b0b-45f8-4a76-8f97-4c919b45fb62}, !- Handle
  IEAD Roof CZ1 R-36,                     !- Name
  ,                                       !- Surface Rendering Name
  {f4563b3e-3a87-4d5d-bdbd-d4aecd039f31}, !- Layer 1
  {0a73e2c4-992a-4c2b-8dab-1ac4ecfe523c}, !- Layer 2
  {3c1cbd78-5771-4180-a3f1-38e81c577ad8}; !- Layer 3

OS:StandardsInformation:Construction,
  {0569b5e5-119b-4c32-bfad-b604914173e7}, !- Handle
  {bc857b0b-45f8-4a76-8f97-4c919b45fb62}, !- Construction Name
  ExteriorRoof,                           !- Intended Surface Type
  IEAD;                                   !- Standards Construction Type

OS:Material:NoMass,
  {0a73e2c4-992a-4c2b-8dab-1ac4ecfe523c}, !- Handle
  Typical Insulation R-34.76,             !- Name
  Smooth,                                 !- Roughness
  6.12084480351838,                       !- Thermal Resistance {m2-K/W}
  0.9,                                    !- Thermal Absorptance
  0.7,                                    !- Solar Absorptance
  0.7;                                    !- Visible Absorptance

OS:Construction,
  {2b8d4713-122a-4ff5-95b6-edc939786516}, !- Handle
  IEAD Roof CZ1 R-41,                     !- Name
  ,                                       !- Surface Rendering Name
  {f4563b3e-3a87-4d5d-bdbd-d4aecd039f31}, !- Layer 1
  {ff0e5c5e-44d5-421d-8f15-23a3250646dc}, !- Layer 2
  {3c1cbd78-5771-4180-a3f1-38e81c577ad8}; !- Layer 3

OS:StandardsInformation:Construction,
  {0fa9f20f-3b3b-4b8c-8f89-a278c2d9de59}, !- Handle
  {2b8d4713-122a-4ff5-95b6-edc939786516}, !- Construction Name
  ExteriorRoof,                           !- Intended Surface Type
  IEAD;                                   !- Standards Construction Type

OS:Material:NoMass,
  {ff0e5c5e-44d5-421d-8f15-23a3250646dc}, !- Handle
  Typical Insulation R-39.76,             !- Name
  Smooth,                                 !- Roughness
  7.00139572192991,                       !- Thermal Resistance {m2-K/W}
  0.9,                                    !- Thermal Absorptance
  0.7,                                    !- Solar Absorptance
  0.7;                                    !- Visible Absorptance

OS:Construction,
  {f96f5716-01b2-473f-acd9-6754b48643a2}, !- Handle
  Typical Metal Roof CZ1 R-15,            !- Name
  ,                                       !- Surface Rendering Name
  {8416b461-e8f0-474b-87a5-039e0b338f0e}, !- Layer 1
  {1c2b8bdb-8f3a-4f1e-be68-beec4e8738b8}; !- Layer 2

OS:StandardsInformation:Construction,
  {f22ea3f5-0395-41a2-9777-8e334d33c899}, !- Handle
  {f96f5716-01b2-473f-acd9-6754b48643a2}, !- Construction Name
  ExteriorRoof,                           !- Intended Surface Type
  Metal Building;                         !- Standards Construction Type

OS:Material,
  {8416b461-e8f0-474b-87a5-039e0b338f0e}, !- Handle
  Metal Roof Surface - Highly Reflective, !- Name
  Smooth,                                 !- Roughness
  0.000799999999999998,                   !- Thickness {m}
  45.2799999999999,                       !- Conductivity {W/m-K}
  7823.99999999999,                       !- Density {kg/m3}
  499.999999999996,                       !- Specific Heat {J/kg-K}
  0.75,                                   !- Thermal Absorptance
  0.45,                                   !- Solar Absorptance
  0.7;                                    !- Visible Absorptance

OS:Material:NoMass,
  {1c2b8bdb-8f3a-4f1e-be68-beec4e8738b8}, !- Handle
  Typical Insulation R-14.6,              !- Name
  Smooth,                                 !- Roughness
  2.57200383014952,                       !- Thermal Resistance {m2-K/W}
  0.9,                                    !- Thermal Absorptance
  0.7,                                    !- Solar Absorptance
  0.7;                                    !- Visible Absorptance

OS:Construction,
  {b0a7a83a-9c5b-45dc-aa94-4316628b8843}, !- Handle
  Metal Roof CZ1 R-25,                    !- Name
  ,                                       !- Surface Rendering Name
  {8416b461-e8f0-474b-87a5-039e0b338f0e}, !- Layer 1
  {935f6231-e8c8-4258-a6ec-3b3b1768eb1c}; !- Layer 2

OS:StandardsInformation:Construction,
  {6405bf1b-9d33-4295-88f4-a9d08a67b9e4}, !- Handle
  {b0a7a83a-9c5b-45dc-aa94-4316628b8843}, !- Construction Name
  ExteriorRoof,                           !- Intended Surface Type
  Metal Building;                         !- Standards Construction Type

OS:Material:NoMass,
  {935f6231-e8c8-4258-a6ec-3b3b1768eb1c}, !- Handle
  Typical Insulation R-24.6,              !- Name
  Smooth,                                 !- Roughness
  4.33310566697258,                       !- Thermal Resistance {m2-K/W}
  0.9,                                    !- Thermal Absorptance
  0.7,                                    !- Solar Absorptance
  0.7;                                    !- Visible Absorptance

OS:Construction,
  {3daf7ea7-a8fc-4711-819b-6e60e32ed569}, !- Handle
  Metal Roof CZ1 R-30,                    !- Name
  ,                                       !- Surface Rendering Name
  {8416b461-e8f0-474b-87a5-039e0b338f0e}, !- Layer 1
  {87ef5c4e-0df1-4f4d-8da3-f05c380cf2cc}; !- Layer 2

OS:StandardsInformation:Construction,
  {19f36093-52b0-4f82-925c-e94ea47ada81}, !- Handle
  {3daf7ea7-a8fc-4711-819b-6e60e32ed569}, !- Construction Name
  ExteriorRoof,                           !- Intended Surface Type
  Metal Building;                         !- Standards Construction Type

OS:Material:NoMass,
  {87ef5c4e-0df1-4f4d-8da3-f05c380cf2cc}, !- Handle
  Typical Insulation R-29.6,              !- Name
  Smooth,                                 !- Roughness
  5.21365658538411,                       !- Thermal Resistance {m2-K/W}
  0.9,                                    !- Thermal Absorptance
  0.7,                                    !- Solar Absorptance
  0.7;                                    !- Visible Absorptance

OS:Construction,
  {dc6c41a3-e1d6-4439-b425-012cb5da4290}, !- Handle
  Metal Roof CZ1 R-35,                    !- Name
  ,                                       !- Surface Rendering Name
  {8416b461-e8f0-474b-87a5-039e0b338f0e}, !- Layer 1
  {a9d3bcc6-2fe2-424f-8a86-1c6ad72cda3b}; !- Layer 2

OS:StandardsInformation:Construction,
  {689e14ca-9611-4987-a24b-8cd7d30411ac}, !- Handle
  {dc6c41a3-e1d6-4439-b425-012cb5da4290}, !- Construction Name
  ExteriorRoof,                           !- Intended Surface Type
  Metal Building;                         !- Standards Construction Type

OS:Material:NoMass,
  {a9d3bcc6-2fe2-424f-8a86-1c6ad72cda3b}, !- Handle
  Typical Insulation R-34.6,              !- Name
  Smooth,                                 !- Roughness
  6.09420750379564,                       !- Thermal Resistance {m2-K/W}
  0.9,                                    !- Thermal Absorptance
  0.7,                                    !- Solar Absorptance
  0.7;                                    !- Visible Absorptance

OS:Construction,
  {ef1daf98-17b6-4da2-ad6b-9fdf7eeda7a6}, !- Handle
  Metal Roof CZ1 R-40,                    !- Name
  ,                                       !- Surface Rendering Name
  {8416b461-e8f0-474b-87a5-039e0b338f0e}, !- Layer 1
  {47a01397-feb2-4e99-b895-39d07fc77d6f}; !- Layer 2

OS:StandardsInformation:Construction,
  {5e94b226-1600-40db-83bb-4eb68ab727cc}, !- Handle
  {ef1daf98-17b6-4da2-ad6b-9fdf7eeda7a6}, !- Construction Name
  ExteriorRoof,                           !- Intended Surface Type
  Metal Building;                         !- Standards Construction Type

OS:Material:NoMass,
  {47a01397-feb2-4e99-b895-39d07fc77d6f}, !- Handle
  Typical Insulation R-39.6,              !- Name
  Smooth,                                 !- Roughness
  6.97475842220717,                       !- Thermal Resistance {m2-K/W}
  0.9,                                    !- Thermal Absorptance
  0.7,                                    !- Solar Absorptance
  0.7;                                    !- Visible Absorptance

OS:Construction,
  {e3ae74d6-c10f-4c53-9d95-4dfe8da8ff6d}, !- Handle
  Typical Mass Wall CZ1 R-2,              !- Name
  ,                                       !- Surface Rendering Name
  {6d629dfb-d617-4155-9645-5df245d9bfc4}, !- Layer 1
  {61451f11-6483-4a59-8dce-554d1a91dd6e}, !- Layer 2
  {e7f4fe35-92a2-47ca-ba7b-c1743d4abee5}, !- Layer 3
  {fb66cc6a-9840-4a3b-922d-ffd1e521bd32}; !- Layer 4

OS:StandardsInformation:Construction,
  {18496d0d-de6a-4319-b551-611e9a2eb4db}, !- Handle
  {e3ae74d6-c10f-4c53-9d95-4dfe8da8ff6d}, !- Construction Name
  ExteriorWall,                           !- Intended Surface Type
  Mass;                                   !- Standards Construction Type

OS:Material,
  {6d629dfb-d617-4155-9645-5df245d9bfc4}, !- Handle
  1IN Stucco,                             !- Name
  Smooth,                                 !- Roughness
  0.0253,                                 !- Thickness {m}
  0.691799999999999,                      !- Conductivity {W/m-K}
  1858,                                   !- Density {kg/m3}
  836.999999999999,                       !- Specific Heat {J/kg-K}
  0.9,                                    !- Thermal Absorptance
  0.7,                                    !- Solar Absorptance
  0.92;                                   !- Visible Absorptance

OS:Material,
  {61451f11-6483-4a59-8dce-554d1a91dd6e}, !- Handle
  8IN CONCRETE HW RefBldg,                !- Name
  Rough,                                  !- Roughness
  0.2032,                                 !- Thickness {m}
  1.311,                                  !- Conductivity {W/m-K}
  2240,                                   !- Density {kg/m3}
  836.800000000001,                       !- Specific Heat {J/kg-K}
  0.9,                                    !- Thermal Absorptance
  0.7,                                    !- Solar Absorptance
  0.7;                                    !- Visible Absorptance

OS:Material:NoMass,
  {e7f4fe35-92a2-47ca-ba7b-c1743d4abee5}, !- Handle
  Typical Insulation R-0.01,              !- Name
  Smooth,                                 !- Roughness
  0.00176110183682306,                    !- Thermal Resistance {m2-K/W}
  0.9,                                    !- Thermal Absorptance
  0.7,                                    !- Solar Absorptance
  0.7;                                    !- Visible Absorptance

OS:Material,
  {fb66cc6a-9840-4a3b-922d-ffd1e521bd32}, !- Handle
  1/2IN Gypsum,                           !- Name
  Smooth,                                 !- Roughness
  0.0127,                                 !- Thickness {m}
  0.16,                                   !- Conductivity {W/m-K}
  784.9,                                  !- Density {kg/m3}
  830.000000000001,                       !- Specific Heat {J/kg-K}
  0.9,                                    !- Thermal Absorptance
  0.4,                                    !- Solar Absorptance
  0.4;                                    !- Visible Absorptance

OS:Construction,
  {f47f9a54-5247-4946-81c3-c517f3e5df42}, !- Handle
  Mass Wall CZ1 R-7,                      !- Name
  ,                                       !- Surface Rendering Name
  {6d629dfb-d617-4155-9645-5df245d9bfc4}, !- Layer 1
  {61451f11-6483-4a59-8dce-554d1a91dd6e}, !- Layer 2
  {5fdd5476-ad42-4395-8d86-1a5adde792b4}, !- Layer 3
  {fb66cc6a-9840-4a3b-922d-ffd1e521bd32}; !- Layer 4

OS:StandardsInformation:Construction,
  {6016ba73-0a42-453e-917b-8b91c06c537a}, !- Handle
  {f47f9a54-5247-4946-81c3-c517f3e5df42}, !- Construction Name
  ExteriorWall,                           !- Intended Surface Type
  Mass;                                   !- Standards Construction Type

OS:Material:NoMass,
  {5fdd5476-ad42-4395-8d86-1a5adde792b4}, !- Handle
  Typical Insulation R-4.34,              !- Name
  Smooth,                                 !- Roughness
  0.763553060521299,                      !- Thermal Resistance {m2-K/W}
  0.9,                                    !- Thermal Absorptance
  0.7,                                    !- Solar Absorptance
  0.7;                                    !- Visible Absorptance

OS:Construction,
  {c09ca4f8-cca7-4fcb-afe3-522477577d9e}, !- Handle
  Mass Wall CZ1 R-12,                     !- Name
  ,                                       !- Surface Rendering Name
  {6d629dfb-d617-4155-9645-5df245d9bfc4}, !- Layer 1
  {61451f11-6483-4a59-8dce-554d1a91dd6e}, !- Layer 2
  {243f33aa-e40d-45c7-9769-5f5b7d2cc7f2}, !- Layer 3
  {fb66cc6a-9840-4a3b-922d-ffd1e521bd32}; !- Layer 4

OS:StandardsInformation:Construction,
  {10e010a1-6d74-40dd-a729-ee90b457b8ee}, !- Handle
  {c09ca4f8-cca7-4fcb-afe3-522477577d9e}, !- Construction Name
  ExteriorWall,                           !- Intended Surface Type
  Mass;                                   !- Standards Construction Type

OS:Material:NoMass,
  {243f33aa-e40d-45c7-9769-5f5b7d2cc7f2}, !- Handle
  Typical Insulation R-9.34,              !- Name
  Smooth,                                 !- Roughness
  1.64410397893283,                       !- Thermal Resistance {m2-K/W}
  0.9,                                    !- Thermal Absorptance
  0.7,                                    !- Solar Absorptance
  0.7;                                    !- Visible Absorptance

OS:Construction,
  {1d7bade5-4f5e-42b4-98bd-36b3a9eddfe1}, !- Handle
  Mass Wall CZ1 R-17,                     !- Name
  ,                                       !- Surface Rendering Name
  {6d629dfb-d617-4155-9645-5df245d9bfc4}, !- Layer 1
  {61451f11-6483-4a59-8dce-554d1a91dd6e}, !- Layer 2
  {1c7aa979-2d2e-4cff-b2be-559b42a54098}, !- Layer 3
  {fb66cc6a-9840-4a3b-922d-ffd1e521bd32}; !- Layer 4

OS:StandardsInformation:Construction,
  {feb91d22-3fd1-460d-b353-126d2ffab864}, !- Handle
  {1d7bade5-4f5e-42b4-98bd-36b3a9eddfe1}, !- Construction Name
  ExteriorWall,                           !- Intended Surface Type
  Mass;                                   !- Standards Construction Type

OS:Material:NoMass,
  {1c7aa979-2d2e-4cff-b2be-559b42a54098}, !- Handle
  Typical Insulation R-14.34,             !- Name
  Smooth,                                 !- Roughness
  2.52465489734436,                       !- Thermal Resistance {m2-K/W}
  0.9,                                    !- Thermal Absorptance
  0.7,                                    !- Solar Absorptance
  0.7;                                    !- Visible Absorptance

OS:Construction,
  {a05d7f74-adba-44af-b4c8-bc473f0e07fa}, !- Handle
  Mass Wall CZ1 R-22,                     !- Name
  ,                                       !- Surface Rendering Name
  {6d629dfb-d617-4155-9645-5df245d9bfc4}, !- Layer 1
  {61451f11-6483-4a59-8dce-554d1a91dd6e}, !- Layer 2
  {1772297d-dcee-4ebb-a479-2e6d1f818e85}, !- Layer 3
  {fb66cc6a-9840-4a3b-922d-ffd1e521bd32}; !- Layer 4

OS:StandardsInformation:Construction,
  {28f54b13-d64b-4fa0-a89f-31a4c2c0de78}, !- Handle
  {a05d7f74-adba-44af-b4c8-bc473f0e07fa}, !- Construction Name
  ExteriorWall,                           !- Intended Surface Type
  Mass;                                   !- Standards Construction Type

OS:Material:NoMass,
  {1772297d-dcee-4ebb-a479-2e6d1f818e85}, !- Handle
  Typical Insulation R-19.34,             !- Name
  Smooth,                                 !- Roughness
  3.40520581575589,                       !- Thermal Resistance {m2-K/W}
  0.9,                                    !- Thermal Absorptance
  0.7,                                    !- Solar Absorptance
  0.7;                                    !- Visible Absorptance

OS:Construction,
  {6340a860-54d1-462b-bd35-62af9399aebb}, !- Handle
  Typical Metal Wall CZ1 R-9,             !- Name
  ,                                       !- Surface Rendering Name
  {587945fc-63c8-4451-80b9-e101b1cdc099}, !- Layer 1
  {2b5c7aed-6266-4a98-96dd-7b0750863f2f}, !- Layer 2
  {fb66cc6a-9840-4a3b-922d-ffd1e521bd32}; !- Layer 3

OS:StandardsInformation:Construction,
  {1771c3be-9efd-4b99-bdda-1b7d55afec6b}, !- Handle
  {6340a860-54d1-462b-bd35-62af9399aebb}, !- Construction Name
  ExteriorWall,                           !- Intended Surface Type
  Metal Building;                         !- Standards Construction Type

OS:Material,
  {587945fc-63c8-4451-80b9-e101b1cdc099}, !- Handle
  Metal Siding,                           !- Name
  Smooth,                                 !- Roughness
  0.0015,                                 !- Thickness {m}
  44.9599999999999,                       !- Conductivity {W/m-K}
  7688.86,                                !- Density {kg/m3}
  410,                                    !- Specific Heat {J/kg-K}
  0.9,                                    !- Thermal Absorptance
  0.7,                                    !- Solar Absorptance
  0.7;                                    !- Visible Absorptance

OS:Material:NoMass,
  {2b5c7aed-6266-4a98-96dd-7b0750863f2f}, !- Handle
  Typical Insulation R-7.55,              !- Name
  Smooth,                                 !- Roughness
  1.32939518160909,                       !- Thermal Resistance {m2-K/W}
  0.9,                                    !- Thermal Absorptance
  0.7,                                    !- Solar Absorptance
  0.7;                                    !- Visible Absorptance

OS:Construction,
  {9ae7a439-b697-4a27-b737-332c9122086e}, !- Handle
  Metal Wall CZ1 R-14,                    !- Name
  ,                                       !- Surface Rendering Name
  {587945fc-63c8-4451-80b9-e101b1cdc099}, !- Layer 1
  {c908c6e8-5b7e-4294-afaa-009121ccc46b}, !- Layer 2
  {fb66cc6a-9840-4a3b-922d-ffd1e521bd32}; !- Layer 3

OS:StandardsInformation:Construction,
  {510b4baf-5c5c-4d73-a2ba-6dcdc1924f54}, !- Handle
  {9ae7a439-b697-4a27-b737-332c9122086e}, !- Construction Name
  ExteriorWall,                           !- Intended Surface Type
  Metal Building;                         !- Standards Construction Type

OS:Material:NoMass,
  {c908c6e8-5b7e-4294-afaa-009121ccc46b}, !- Handle
  Typical Insulation R-12.55,             !- Name
  Smooth,                                 !- Roughness
  2.20994610002062,                       !- Thermal Resistance {m2-K/W}
  0.9,                                    !- Thermal Absorptance
  0.7,                                    !- Solar Absorptance
  0.7;                                    !- Visible Absorptance

OS:Construction,
  {0aa99bdb-7bc0-4ff4-8e99-28c5219e5320}, !- Handle
  Metal Wall CZ1 R-19,                    !- Name
  ,                                       !- Surface Rendering Name
  {587945fc-63c8-4451-80b9-e101b1cdc099}, !- Layer 1
  {16ca3f2d-87ce-487f-948e-3fd19dac27cb}, !- Layer 2
  {fb66cc6a-9840-4a3b-922d-ffd1e521bd32}; !- Layer 3

OS:StandardsInformation:Construction,
  {c03ab3df-ce3e-485c-9a75-3cf421cbf6ce}, !- Handle
  {0aa99bdb-7bc0-4ff4-8e99-28c5219e5320}, !- Construction Name
  ExteriorWall,                           !- Intended Surface Type
  Metal Building;                         !- Standards Construction Type

OS:Material:NoMass,
  {16ca3f2d-87ce-487f-948e-3fd19dac27cb}, !- Handle
  Typical Insulation R-17.55,             !- Name
  Smooth,                                 !- Roughness
  3.09049701843215,                       !- Thermal Resistance {m2-K/W}
  0.9,                                    !- Thermal Absorptance
  0.7,                                    !- Solar Absorptance
  0.7;                                    !- Visible Absorptance

OS:Construction,
  {fb220986-6353-48d6-9914-dcbf30ecccf7}, !- Handle
  Metal Wall CZ1 R-24,                    !- Name
  ,                                       !- Surface Rendering Name