
OS:Version,
  {8ca5cad9-a82e-4e91-ace4-74ac3216b1eb}, !- Handle
  3.0.0;                                  !- Version Identifier

OS:Schedule:Ruleset,
  {96eba8fa-a0c7-4277-b8ca-45ae9a778a6d}, !- Handle
  Office_Breakroom_Large_ACTIVITY_SPEED,  !- Name
  ,                                       !- Schedule Type Limits Name
  {904c03d7-47de-49f5-b22e-bc57c7e277b8}, !- Default Day Schedule Name
  {85b67a86-01eb-447f-bc8a-7fb48992caec}, !- Summer Design Day Schedule Name
  {ac943105-9c03-4919-ba87-bfd0f42cf962}; !- Winter Design Day Schedule Name

OS:Schedule:Day,
  {904c03d7-47de-49f5-b22e-bc57c7e277b8}, !- Handle
  Schedule Day 1,                         !- Name
  ,                                       !- Schedule Type Limits Name
  ,                                       !- Interpolate to Timestep
  24,                                     !- Hour 1
  0,                                      !- Minute 1
  0;                                      !- Value Until Time 1

OS:Schedule:Rule,
  {db024dd5-6576-4ae3-b5a7-84bd746b7dea}, !- Handle
  Schedule Rule 1,                        !- Name
  {96eba8fa-a0c7-4277-b8ca-45ae9a778a6d}, !- Schedule Ruleset Name
  2,                                      !- Rule Order
  {560d36a7-37b0-4ed7-a23e-935d5f03ddda}, !- Day Schedule Name
  ,                                       !- Apply Sunday
  ,                                       !- Apply Monday
  ,                                       !- Apply Tuesday
  ,                                       !- Apply Wednesday
  ,                                       !- Apply Thursday
  ,                                       !- Apply Friday
  Yes,                                    !- Apply Saturday
  DateRange,                              !- Date Specification Type
  1,                                      !- Start Month
  1,                                      !- Start Day
  12,                                     !- End Month
  31;                                     !- End Day

OS:Schedule:Day,
  {560d36a7-37b0-4ed7-a23e-935d5f03ddda}, !- Handle
  Office_Breakroom_Large_ACTIVITY_SPEED Sat Day, !- Name
  ,                                       !- Schedule Type Limits Name
  ,                                       !- Interpolate to Timestep
  24,                                     !- Hour 1
  0,                                      !- Minute 1
  120;                                    !- Value Until Time 1

OS:Schedule:Day,
  {f9243a71-4d5d-4595-99a5-c67eba20e3ac}, !- Handle
  Schedule Day 2,                         !- Name
  ,                                       !- Schedule Type Limits Name
  ,                                       !- Interpolate to Timestep
  24,                                     !- Hour 1
  0,                                      !- Minute 1
  0;                                      !- Value Until Time 1

OS:Schedule:Day,
  {85b67a86-01eb-447f-bc8a-7fb48992caec}, !- Handle
  Office_Breakroom_Large_ACTIVITY_SPEED Summer Design Day, !- Name
  ,                                       !- Schedule Type Limits Name
  ,                                       !- Interpolate to Timestep
  24,                                     !- Hour 1
  0,                                      !- Minute 1
  120;                                    !- Value Until Time 1

OS:Schedule:Rule,
  {3b6c92b0-f28a-4c94-92a1-03cd56a5d13f}, !- Handle
  Schedule Rule 2,                        !- Name
  {96eba8fa-a0c7-4277-b8ca-45ae9a778a6d}, !- Schedule Ruleset Name
  1,                                      !- Rule Order
  {daa51460-64fa-4413-b2db-3ac1843bb049}, !- Day Schedule Name
  Yes,                                    !- Apply Sunday
  ,                                       !- Apply Monday
  ,                                       !- Apply Tuesday
  ,                                       !- Apply Wednesday
  ,                                       !- Apply Thursday
  ,                                       !- Apply Friday
  ,                                       !- Apply Saturday
  DateRange,                              !- Date Specification Type
  1,                                      !- Start Month
  1,                                      !- Start Day
  12,                                     !- End Month
  31;                                     !- End Day

OS:Schedule:Day,
  {daa51460-64fa-4413-b2db-3ac1843bb049}, !- Handle
  Office_Breakroom_Large_ACTIVITY_SPEED Sun Day, !- Name
  ,                                       !- Schedule Type Limits Name
  ,                                       !- Interpolate to Timestep
  24,                                     !- Hour 1
  0,                                      !- Minute 1
  120;                                    !- Value Until Time 1

OS:Schedule:Rule,
  {9c08d56e-96d4-4441-b644-7f5165e5e479}, !- Handle
  Schedule Rule 3,                        !- Name
  {96eba8fa-a0c7-4277-b8ca-45ae9a778a6d}, !- Schedule Ruleset Name
  0,                                      !- Rule Order
  {04a7a526-0d49-4407-a23f-25bfe36c4aa0}, !- Day Schedule Name
  ,                                       !- Apply Sunday
  Yes,                                    !- Apply Monday
  Yes,                                    !- Apply Tuesday
  Yes,                                    !- Apply Wednesday
  Yes,                                    !- Apply Thursday
  Yes,                                    !- Apply Friday
  ,                                       !- Apply Saturday
  DateRange,                              !- Date Specification Type
  1,                                      !- Start Month
  1,                                      !- Start Day
  12,                                     !- End Month
  31;                                     !- End Day

OS:Schedule:Day,
  {04a7a526-0d49-4407-a23f-25bfe36c4aa0}, !- Handle
  Office_Breakroom_Large_ACTIVITY_SPEED Wkdy Day, !- Name
  ,                                       !- Schedule Type Limits Name
  ,                                       !- Interpolate to Timestep
  24,                                     !- Hour 1
  0,                                      !- Minute 1
  120;                                    !- Value Until Time 1

OS:Schedule:Day,
  {158189d3-c8e6-4cc7-a878-ba47a69492e3}, !- Handle
  Schedule Day 3,                         !- Name
  ,                                       !- Schedule Type Limits Name
  ,                                       !- Interpolate to Timestep
  24,                                     !- Hour 1
  0,                                      !- Minute 1
  0;                                      !- Value Until Time 1

OS:Schedule:Day,
  {ac943105-9c03-4919-ba87-bfd0f42cf962}, !- Handle
  Office_Breakroom_Large_ACTIVITY_SPEED Winter Design Day, !- Name
  ,                                       !- Schedule Type Limits Name
  ,                                       !- Interpolate to Timestep
  24,                                     !- Hour 1
  0,                                      !- Minute 1
  120;                                    !- Value Until Time 1

OS:Schedule:Ruleset,
  {c29ec0cf-e8df-481a-adcb-277bb7330c65}, !- Handle
  Office_Breakroom_Large_CLGSETP_SPEED,   !- Name
  ,                                       !- Schedule Type Limits Name
  {edf03d2b-36fd-45ef-be0c-2601f5aff748}, !- Default Day Schedule Name
  {e3082ee0-da20-49c1-b970-50a2cbc9ce30}, !- Summer Design Day Schedule Name
  {85cd086b-da84-450c-8cb6-1b4b7e09079d}; !- Winter Design Day Schedule Name

OS:Schedule:Day,
  {edf03d2b-36fd-45ef-be0c-2601f5aff748}, !- Handle
  Schedule Day 4,                         !- Name
  ,                                       !- Schedule Type Limits Name
  ,                                       !- Interpolate to Timestep
  24,                                     !- Hour 1
  0,                                      !- Minute 1
  0;                                      !- Value Until Time 1

OS:Schedule:Rule,
  {e102d60b-444f-413c-8074-a4b89b19c588}, !- Handle
  Schedule Rule 4,                        !- Name
  {c29ec0cf-e8df-481a-adcb-277bb7330c65}, !- Schedule Ruleset Name
  2,                                      !- Rule Order
  {7083f165-fce0-499a-af96-cde8c410f8db}, !- Day Schedule Name
  ,                                       !- Apply Sunday
  ,                                       !- Apply Monday
  ,                                       !- Apply Tuesday
  ,                                       !- Apply Wednesday
  ,                                       !- Apply Thursday
  ,                                       !- Apply Friday
  Yes,                                    !- Apply Saturday
  DateRange,                              !- Date Specification Type
  1,                                      !- Start Month
  1,                                      !- Start Day
  12,                                     !- End Month
  31;                                     !- End Day

OS:Schedule:Day,
  {7083f165-fce0-499a-af96-cde8c410f8db}, !- Handle
  Office_Breakroom_Large_CLGSETP_SPEED Sat Day, !- Name
  ,                                       !- Schedule Type Limits Name
  ,                                       !- Interpolate to Timestep
  6,                                      !- Hour 1
  0,                                      !- Minute 1
  25.6,                                   !- Value Until Time 1
  17,                                     !- Hour 2
  0,                                      !- Minute 2
  23.9,                                   !- Value Until Time 2
  24,                                     !- Hour 3
  0,                                      !- Minute 3
  25.6;                                   !- Value Until Time 3

OS:Schedule:Day,
  {a215c56b-39d9-47cd-8b5b-5cf1e6d8fb91}, !- Handle
  Schedule Day 5,                         !- Name
  ,                                       !- Schedule Type Limits Name
  ,                                       !- Interpolate to Timestep
  24,                                     !- Hour 1
  0,                                      !- Minute 1
  0;                                      !- Value Until Time 1

OS:Schedule:Day,
  {e3082ee0-da20-49c1-b970-50a2cbc9ce30}, !- Handle
  Office_Breakroom_Large_CLGSETP_SPEED Summer Design Day, !- Name
  ,                                       !- Schedule Type Limits Name
  ,                                       !- Interpolate to Timestep
  24,                                     !- Hour 1
  0,                                      !- Minute 1
  23.9;                                   !- Value Until Time 1

OS:Schedule:Rule,
  {f6e64b07-1850-41b5-928d-ff85dd3b0201}, !- Handle
  Schedule Rule 5,                        !- Name
  {c29ec0cf-e8df-481a-adcb-277bb7330c65}, !- Schedule Ruleset Name
  1,                                      !- Rule Order
  {3ce4625f-b466-499d-9a38-84d17cf57134}, !- Day Schedule Name
  Yes,                                    !- Apply Sunday
  ,                                       !- Apply Monday
  ,                                       !- Apply Tuesday
  ,                                       !- Apply Wednesday
  ,                                       !- Apply Thursday
  ,                                       !- Apply Friday
  ,                                       !- Apply Saturday
  DateRange,                              !- Date Specification Type
  1,                                      !- Start Month
  1,                                      !- Start Day
  12,                                     !- End Month
  31;                                     !- End Day

OS:Schedule:Day,
  {3ce4625f-b466-499d-9a38-84d17cf57134}, !- Handle
  Office_Breakroom_Large_CLGSETP_SPEED Sun Day, !- Name
  ,                                       !- Schedule Type Limits Name
  ,                                       !- Interpolate to Timestep
  24,                                     !- Hour 1
  0,                                      !- Minute 1
  25.6;                                   !- Value Until Time 1

OS:Schedule:Rule,
  {4d67497d-fcb3-4baa-a1cd-882e5997bb05}, !- Handle
  Schedule Rule 6,                        !- Name
  {c29ec0cf-e8df-481a-adcb-277bb7330c65}, !- Schedule Ruleset Name
  0,                                      !- Rule Order
  {5284c168-1d93-4552-aa92-6503960e43e4}, !- Day Schedule Name
  ,                                       !- Apply Sunday
  Yes,                                    !- Apply Monday
  Yes,                                    !- Apply Tuesday
  Yes,                                    !- Apply Wednesday
  Yes,                                    !- Apply Thursday
  Yes,                                    !- Apply Friday
  ,                                       !- Apply Saturday
  DateRange,                              !- Date Specification Type
  1,                                      !- Start Month
  1,                                      !- Start Day
  12,                                     !- End Month
  31;                                     !- End Day

OS:Schedule:Day,
  {5284c168-1d93-4552-aa92-6503960e43e4}, !- Handle
  Office_Breakroom_Large_CLGSETP_SPEED Wkdy Day, !- Name
  ,                                       !- Schedule Type Limits Name
  ,                                       !- Interpolate to Timestep
  6,                                      !- Hour 1
  0,                                      !- Minute 1
  25.6,                                   !- Value Until Time 1
  22,                                     !- Hour 2
  0,                                      !- Minute 2
  23.9,                                   !- Value Until Time 2
  24,                                     !- Hour 3
  0,                                      !- Minute 3
  25.6;                                   !- Value Until Time 3

OS:Schedule:Day,
  {5d19e8ec-8468-4e33-9045-47dab4b95a6b}, !- Handle
  Schedule Day 6,                         !- Name
  ,                                       !- Schedule Type Limits Name
  ,                                       !- Interpolate to Timestep
  24,                                     !- Hour 1
  0,                                      !- Minute 1
  0;                                      !- Value Until Time 1

OS:Schedule:Day,
  {85cd086b-da84-450c-8cb6-1b4b7e09079d}, !- Handle
  Office_Breakroom_Large_CLGSETP_SPEED Winter Design Day, !- Name
  ,                                       !- Schedule Type Limits Name
  ,                                       !- Interpolate to Timestep
  24,                                     !- Hour 1
  0,                                      !- Minute 1
  23.9;                                   !- Value Until Time 1

OS:Schedule:Ruleset,
  {45e9e79d-773e-42d0-8478-01c31856762f}, !- Handle
  Office_Breakroom_Large_EQUIP_2010_SPEED, !- Name
  ,                                       !- Schedule Type Limits Name
  {63b60dde-1252-4a1a-a130-be5f909de92a}, !- Default Day Schedule Name
  {2fa2ee28-496b-4ae6-88ad-3717b68f23f3}, !- Summer Design Day Schedule Name
  {df322e5f-e538-4ebc-937e-999deb5b655b}; !- Winter Design Day Schedule Name

OS:Schedule:Day,
  {63b60dde-1252-4a1a-a130-be5f909de92a}, !- Handle
  Schedule Day 7,                         !- Name
  ,                                       !- Schedule Type Limits Name
  ,                                       !- Interpolate to Timestep
  24,                                     !- Hour 1
  0,                                      !- Minute 1
  0;                                      !- Value Until Time 1

OS:Schedule:Rule,
  {f623e745-fe25-480b-86c4-ad3afd4385ff}, !- Handle
  Schedule Rule 7,                        !- Name
  {45e9e79d-773e-42d0-8478-01c31856762f}, !- Schedule Ruleset Name
  2,                                      !- Rule Order
  {047a1322-d5e5-497a-8fe5-353fdc73853a}, !- Day Schedule Name
  ,                                       !- Apply Sunday
  ,                                       !- Apply Monday
  ,                                       !- Apply Tuesday
  ,                                       !- Apply Wednesday
  ,                                       !- Apply Thursday
  ,                                       !- Apply Friday
  Yes,                                    !- Apply Saturday
  DateRange,                              !- Date Specification Type
  1,                                      !- Start Month
  1,                                      !- Start Day
  12,                                     !- End Month
  31;                                     !- End Day

OS:Schedule:Day,
  {047a1322-d5e5-497a-8fe5-353fdc73853a}, !- Handle
  Office_Breakroom_Large_EQUIP_2010_SPEED Sat Day, !- Name
  ,                                       !- Schedule Type Limits Name
  ,                                       !- Interpolate to Timestep
  6,                                      !- Hour 1
  0,                                      !- Minute 1
  0.3,                                    !- Value Until Time 1
  8,                                      !- Hour 2
  0,                                      !- Minute 2
  0.4,                                    !- Value Until Time 2
  12,                                     !- Hour 3
  0,                                      !- Minute 3
  0.5,                                    !- Value Until Time 3
  17,                                     !- Hour 4
  0,                                      !- Minute 4
  0.35,                                   !- Value Until Time 4
  24,                                     !- Hour 5
  0,                                      !- Minute 5
  0.3;                                    !- Value Until Time 5

OS:Schedule:Day,
  {987408f0-6e39-4c78-8907-ce24863b9a7b}, !- Handle
  Schedule Day 8,                         !- Name
  ,                                       !- Schedule Type Limits Name
  ,                                       !- Interpolate to Timestep
  24,                                     !- Hour 1
  0,                                      !- Minute 1
  0;                                      !- Value Until Time 1

OS:Schedule:Day,
  {2fa2ee28-496b-4ae6-88ad-3717b68f23f3}, !- Handle
  Office_Breakroom_Large_EQUIP_2010_SPEED Summer Design Day, !- Name
  ,                                       !- Schedule Type Limits Name
  ,                                       !- Interpolate to Timestep
  24,                                     !- Hour 1
  0,                                      !- Minute 1
  1;                                      !- Value Until Time 1

OS:Schedule:Rule,
  {c47c73d0-d441-444c-91a2-23f7f44d19a2}, !- Handle
  Schedule Rule 8,                        !- Name
  {45e9e79d-773e-42d0-8478-01c31856762f}, !- Schedule Ruleset Name
  1,                                      !- Rule Order
  {fa0dc8c0-6970-4527-b7cf-60dc0340e74b}, !- Day Schedule Name
  Yes,                                    !- Apply Sunday
  ,                                       !- Apply Monday
  ,                                       !- Apply Tuesday
  ,                                       !- Apply Wednesday
  ,                                       !- Apply Thursday
  ,                                       !- Apply Friday
  ,                                       !- Apply Saturday
  DateRange,                              !- Date Specification Type
  1,                                      !- Start Month
  1,                                      !- Start Day
  12,                                     !- End Month
  31;                                     !- End Day

OS:Schedule:Day,
  {fa0dc8c0-6970-4527-b7cf-60dc0340e74b}, !- Handle
  Office_Breakroom_Large_EQUIP_2010_SPEED Sun Day, !- Name
  ,                                       !- Schedule Type Limits Name
  ,                                       !- Interpolate to Timestep
  24,                                     !- Hour 1
  0,                                      !- Minute 1
  0.3;                                    !- Value Until Time 1

OS:Schedule:Rule,
  {e09f612b-ff62-461f-8fc2-604816022859}, !- Handle
  Schedule Rule 9,                        !- Name
  {45e9e79d-773e-42d0-8478-01c31856762f}, !- Schedule Ruleset Name
  0,                                      !- Rule Order
  {57aeb715-5ed5-4282-96fb-4f3634d2f1fd}, !- Day Schedule Name
  ,                                       !- Apply Sunday
  Yes,                                    !- Apply Monday
  Yes,                                    !- Apply Tuesday
  Yes,                                    !- Apply Wednesday
  Yes,                                    !- Apply Thursday
  Yes,                                    !- Apply Friday
  ,                                       !- Apply Saturday
  DateRange,                              !- Date Specification Type
  1,                                      !- Start Month
  1,                                      !- Start Day
  12,                                     !- End Month
  31;                                     !- End Day

OS:Schedule:Day,
  {57aeb715-5ed5-4282-96fb-4f3634d2f1fd}, !- Handle
  Office_Breakroom_Large_EQUIP_2010_SPEED Wkdy Day, !- Name
  ,                                       !- Schedule Type Limits Name
  ,                                       !- Interpolate to Timestep
  8,                                      !- Hour 1
  0,                                      !- Minute 1
  0.4,                                    !- Value Until Time 1
  12,                                     !- Hour 2
  0,                                      !- Minute 2
  0.9,                                    !- Value Until Time 2
  13,                                     !- Hour 3
  0,                                      !- Minute 3
  0.8,                                    !- Value Until Time 3
  17,                                     !- Hour 4
  0,                                      !- Minute 4
  0.9,                                    !- Value Until Time 4
  18,                                     !- Hour 5
  0,                                      !- Minute 5
  0.5,                                    !- Value Until Time 5
  24,                                     !- Hour 6
  0,                                      !- Minute 6
  0.4;                                    !- Value Until Time 6

OS:Schedule:Day,
  {e7c5ba2d-270e-4df2-afed-87f8a9ba01f1}, !- Handle
  Schedule Day 9,                         !- Name
  ,                                       !- Schedule Type Limits Name
  ,                                       !- Interpolate to Timestep
  24,                                     !- Hour 1
  0,                                      !- Minute 1
  0;                                      !- Value Until Time 1

OS:Schedule:Day,
  {df322e5f-e538-4ebc-937e-999deb5b655b}, !- Handle
  Office_Breakroom_Large_EQUIP_2010_SPEED Winter Design Day, !- Name
  ,                                       !- Schedule Type Limits Name
  ,                                       !- Interpolate to Timestep
  24,                                     !- Hour 1
  0,                                      !- Minute 1
  0;                                      !- Value Until Time 1

OS:Schedule:Ruleset,
  {7b6c253e-2d67-480c-bf40-465c9868e8eb}, !- Handle
  Office_Breakroom_Large_HTGSETP_SPEED,   !- Name
  ,                                       !- Schedule Type Limits Name
  {64342907-9c71-4925-b7bc-610475d8763b}, !- Default Day Schedule Name
  {be3de903-3dd9-48d9-9d20-e979ddb7081b}, !- Summer Design Day Schedule Name
  {c0ebff86-9199-4ccb-b89e-2fa3042229f5}; !- Winter Design Day Schedule Name

OS:Schedule:Day,
  {64342907-9c71-4925-b7bc-610475d8763b}, !- Handle
  Schedule Day 10,                        !- Name
  ,                                       !- Schedule Type Limits Name
  ,                                       !- Interpolate to Timestep
  24,                                     !- Hour 1
  0,                                      !- Minute 1
  0;                                      !- Value Until Time 1

OS:Schedule:Rule,
  {233c4542-ca58-4f83-aa7d-925a584a56b4}, !- Handle
  Schedule Rule 10,                       !- Name
  {7b6c253e-2d67-480c-bf40-465c9868e8eb}, !- Schedule Ruleset Name
  2,                                      !- Rule Order
  {f103c5ae-6c7a-4e0c-bbcf-9c71b2944889}, !- Day Schedule Name
  ,                                       !- Apply Sunday
  ,                                       !- Apply Monday
  ,                                       !- Apply Tuesday
  ,                                       !- Apply Wednesday
  ,                                       !- Apply Thursday
  ,                                       !- Apply Friday
  Yes,                                    !- Apply Saturday
  DateRange,                              !- Date Specification Type
  1,                                      !- Start Month
  1,                                      !- Start Day
  12,                                     !- End Month
  31;                                     !- End Day

OS:Schedule:Day,
  {f103c5ae-6c7a-4e0c-bbcf-9c71b2944889}, !- Handle
  Office_Breakroom_Large_HTGSETP_SPEED Sat Day, !- Name
  ,                                       !- Schedule Type Limits Name
  ,                                       !- Interpolate to Timestep
  6,                                      !- Hour 1
  0,                                      !- Minute 1
  19.4,                                   !- Value Until Time 1
  17,                                     !- Hour 2
  0,                                      !- Minute 2
  21.1,                                   !- Value Until Time 2
  24,                                     !- Hour 3
  0,                                      !- Minute 3
  19.4;                                   !- Value Until Time 3

OS:Schedule:Day,
  {028f5964-d5bf-41dd-a1ea-ec30ae9f0791}, !- Handle
  Schedule Day 11,                        !- Name
  ,                                       !- Schedule Type Limits Name
  ,                                       !- Interpolate to Timestep
  24,                                     !- Hour 1
  0,                                      !- Minute 1
  0;                                      !- Value Until Time 1

OS:Schedule:Day,
  {be3de903-3dd9-48d9-9d20-e979ddb7081b}, !- Handle
  Office_Breakroom_Large_HTGSETP_SPEED Summer Design Day, !- Name
  ,                                       !- Schedule Type Limits Name
  ,                                       !- Interpolate to Timestep
  24,                                     !- Hour 1
  0,                                      !- Minute 1
  21.1;                                   !- Value Until Time 1

OS:Schedule:Rule,
  {d4fbe185-8a08-4a88-9b20-d6484cfceeb7}, !- Handle
  Schedule Rule 11,                       !- Name
  {7b6c253e-2d67-480c-bf40-465c9868e8eb}, !- Schedule Ruleset Name
  1,                                      !- Rule Order
  {294e8703-6362-4155-ad12-e56178a39eb6}, !- Day Schedule Name
  Yes,                                    !- Apply Sunday
  ,                                       !- Apply Monday
  ,                                       !- Apply Tuesday
  ,                                       !- Apply Wednesday
  ,                                       !- Apply Thursday
  ,                                       !- Apply Friday
  ,                                       !- Apply Saturday
  DateRange,                              !- Date Specification Type
  1,                                      !- Start Month
  1,                                      !- Start Day
  12,                                     !- End Month
  31;                                     !- End Day

OS:Schedule:Day,
  {294e8703-6362-4155-ad12-e56178a39eb6}, !- Handle
  Office_Breakroom_Large_HTGSETP_SPEED Sun Day, !- Name
  ,                                       !- Schedule Type Limits Name
  ,                                       !- Interpolate to Timestep
  24,                                     !- Hour 1
  0,                                      !- Minute 1
  19.4;                                   !- Value Until Time 1

OS:Schedule:Rule,
  {186b3f6c-64bd-4377-9634-0dd648d443d7}, !- Handle
  Schedule Rule 12,                       !- Name
  {7b6c253e-2d67-480c-bf40-465c9868e8eb}, !- Schedule Ruleset Name
  0,                                      !- Rule Order
  {e9c0cedc-df75-4e45-94de-05fba4ef457c}, !- Day Schedule Name
  ,                                       !- Apply Sunday
  Yes,                                    !- Apply Monday
  Yes,                                    !- Apply Tuesday
  Yes,                                    !- Apply Wednesday
  Yes,                                    !- Apply Thursday
  Yes,                                    !- Apply Friday
  ,                                       !- Apply Saturday
  DateRange,                              !- Date Specification Type
  1,                                      !- Start Month
  1,                                      !- Start Day
  12,                                     !- End Month
  31;                                     !- End Day

OS:Schedule:Day,
  {e9c0cedc-df75-4e45-94de-05fba4ef457c}, !- Handle
  Office_Breakroom_Large_HTGSETP_SPEED Wkdy Day, !- Name
  ,                                       !- Schedule Type Limits Name
  ,                                       !- Interpolate to Timestep
  6,                                      !- Hour 1
  0,                                      !- Minute 1
  19.4,                                   !- Value Until Time 1
  22,                                     !- Hour 2
  0,                                      !- Minute 2
  21.1,                                   !- Value Until Time 2
  24,                                     !- Hour 3
  0,                                      !- Minute 3
  19.4;                                   !- Value Until Time 3

OS:Schedule:Day,
  {c57dc80e-b7f2-4aa1-8f02-64b4ee0b2c43}, !- Handle