
OS:Version,
  {56250705-ed75-45ee-88c7-6c56629a32a6}, !- Handle
  2.9.1;                                  !- Version Identifier

OS:Schedule:Constant,
  {279c798c-44d4-42d5-9305-a46adbf8d700}, !- Handle
  Always On Discrete,                     !- Name
  {ff13142a-4829-4eaf-bfae-35b63937f507}, !- Schedule Type Limits Name
  1;                                      !- Value

OS:ScheduleTypeLimits,
  {ff13142a-4829-4eaf-bfae-35b63937f507}, !- Handle
  Always On Discrete Limits,              !- Name
  0,                                      !- Lower Limit Value
  1,                                      !- Upper Limit Value
  Discrete,                               !- Numeric Type
  Availability;                           !- Unit Type

OS:Site,
  {7c3e6f88-c8ab-4176-bc27-95fa9159513d}, !- Handle
  Tall Building Geometry (15-O7:15-O7)  (15-07:15-07), !- Name
  37.62,                                  !- Latitude {deg}
  -122.4,                                 !- Longitude {deg}
  -8,                                     !- Time Zone {hr}
  6,                                      !- Elevation {m}
  Suburbs;                                !- Terrain

OS:SimulationControl,
  {e69a57fa-d60b-43d2-924a-dd60de7917fb}, !- Handle
  Yes,                                    !- Do Zone Sizing Calculation
  Yes,                                    !- Do System Sizing Calculation
  No,                                     !- Do Plant Sizing Calculation
  Yes,                                    !- Run Simulation for Sizing Periods
  No,                                     !- Run Simulation for Weather File Run Periods
  0.04,                                   !- Loads Convergence Tolerance Value
  0.4,                                    !- Temperature Convergence Tolerance Value {deltaC}
  FullExterior,                           !- Solar Distribution
  100,                                    !- Maximum Number of Warmup Days
  10;                                     !- Minimum Number of Warmup Days

OS:Schedule:Compact,
  {a43940b5-0745-4b9a-a841-b1e28f180241}, !- Handle
  Clothing Schedule 19317,                !- Name
  {592b01de-771e-430f-b787-ee2217e96080}, !- Schedule Type Limits Name
  Through: 4/1,                           !- Field 1
  For: AllDays,                           !- Field 2
  Until: 24:00,                           !- Field 3
  1,                                      !- Field 4
  Through: 9/30,                          !- Field 5
  For: AllDays,                           !- Field 6
  Until: 24:00,                           !- Field 7
  .5,                                     !- Field 8
  Through: 12/31,                         !- Field 9
  For: AllDays,                           !- Field 10
  Until: 24:00,                           !- Field 11
  1;                                      !- Field 12

OS:ScheduleTypeLimits,
  {73cde93a-168b-4458-a359-8a92e8db18da}, !- Handle
  {3191fab5-0571-4bc8-a414-41719a8b86e6}; !- Name

OS:Surface,
  {648e9c28-f41f-4a61-b8af-30e0e3919509}, !- Handle
  Resi_bot_Plenum_Floor_0_0_10334,     !- Name
  Floor,                                  !- Surface Type
  ,                                       !- Construction Name
  {200b3f91-e893-46d7-8189-3806bcd2f5e7}, !- Space Name
  Surface,                                !- Outside Boundary Condition
  {36f147a2-3bf4-431e-b2fd-f2528a44d808}, !- Outside Boundary Condition Object
  NoSun,                                  !- Sun Exposure
  NoWind,                                 !- Wind Exposure
  0,                                      !- View Factor to Ground
  ,                                       !- Number of Vertices
  46.5734, 13.8532, 0,                    !- X,Y,Z Vertex 1 {m}
  46.5734, 0, 0,                          !- X,Y,Z Vertex 2 {m}
  38.8111, 0, 0,                          !- X,Y,Z Vertex 3 {m}
  38.8111, 13.8532, 0;                    !- X,Y,Z Vertex 4 {m}

OS:ThermalZone,
  {f0468d2c-fa01-4223-8712-17d6df66a65b}, !- Handle
  Resi_bot_Plenum Thermal Zone,        !- Name
  1,                                      !- Multiplier
  ,                                       !- Ceiling Height {m}
  1415.9499,                              !- Volume {m3}
  ,                                       !- Floor Area {m2}
  TARP,                                   !- Zone Inside Convection Algorithm
  ,                                       !- Zone Outside Convection Algorithm
  ,                                       !- Zone Conditioning Equipment List Name
  {bc650697-048d-4bd1-bcb9-72c94d7761bd}, !- Zone Air Inlet Port List
  {d2d38bb9-a573-461f-8590-9c4c2214fbe9}, !- Zone Air Exhaust Port List
  {1f01c55c-b3ee-4ce3-9e0d-db5496620d01}, !- Zone Air Node Name
  {8d0d50ae-1f48-46b1-a0c8-649c69a291b6}, !- Zone Return Air Port List
  ,                                       !- Primary Daylighting Control Name
  ,                                       !- Fraction of Zone Controlled by Primary Daylighting Control
  ,                                       !- Secondary Daylighting Control Name
  ,                                       !- Fraction of Zone Controlled by Secondary Daylighting Control
  ,                                       !- Illuminance Map Name
  {5791ef69-1f1a-41f6-b581-09f8e1e6b9f0}, !- Group Rendering Name
  ,                                       !- Thermostat Name
  No;                                     !- Use Ideal Air Loads

OS:PortList,
  {8d0d50ae-1f48-46b1-a0c8-649c69a291b6}, !- Handle
  Port List 140,                          !- Name
  {f0468d2c-fa01-4223-8712-17d6df66a65b}, !- HVAC Component
  ;                                       !- Port 1

OS:Node,
  {22c084ba-dea4-4222-933a-fafca65e9504}, !- Handle
  {66a55311-a627-4734-b7b3-8cfa616fa357}, !- Name
  {1f01c55c-b3ee-4ce3-9e0d-db5496620d01}, !- Inlet Port
  ;                                       !- Outlet Port

OS:Connection,
  {1f01c55c-b3ee-4ce3-9e0d-db5496620d01}, !- Handle
  {827397d5-b5be-431e-864d-ee190288195b}, !- Name
  {f0468d2c-fa01-4223-8712-17d6df66a65b}, !- Source Object
  11,                                     !- Outlet Port
  {22c084ba-dea4-4222-933a-fafca65e9504}, !- Target Object
  2;                                      !- Inlet Port

OS:PortList,
  {bc650697-048d-4bd1-bcb9-72c94d7761bd}, !- Handle
  {6b40a7b3-c9c2-4624-8921-b34d9aee7f5d}, !- Name
  {f0468d2c-fa01-4223-8712-17d6df66a65b}; !- HVAC Component

OS:PortList,
  {d2d38bb9-a573-461f-8590-9c4c2214fbe9}, !- Handle
  {08132634-19d2-4427-8d06-2ed9e4e7b829}, !- Name
  {f0468d2c-fa01-4223-8712-17d6df66a65b}; !- HVAC Component

OS:Sizing:Zone,
  {8b9cac80-b90d-4ecb-93c5-8cd8982a2d11}, !- Handle
  {f0468d2c-fa01-4223-8712-17d6df66a65b}, !- Zone or ZoneList Name
  SupplyAirTemperature,                   !- Zone Cooling Design Supply Air Temperature Input Method
  14,                                     !- Zone Cooling Design Supply Air Temperature {C}
  11.11,                                  !- Zone Cooling Design Supply Air Temperature Difference {deltaC}
  SupplyAirTemperature,                   !- Zone Heating Design Supply Air Temperature Input Method
  40,                                     !- Zone Heating Design Supply Air Temperature {C}
  11.11,                                  !- Zone Heating Design Supply Air Temperature Difference {deltaC}
  0.0085,                                 !- Zone Cooling Design Supply Air Humidity Ratio {kg-H2O/kg-air}
  0.008,                                  !- Zone Heating Design Supply Air Humidity Ratio {kg-H2O/kg-air}
  ,                                       !- Zone Heating Sizing Factor
  ,                                       !- Zone Cooling Sizing Factor
  DesignDay,                              !- Cooling Design Air Flow Method
  ,                                       !- Cooling Design Air Flow Rate {m3/s}
  ,                                       !- Cooling Minimum Air Flow per Zone Floor Area {m3/s-m2}
  ,                                       !- Cooling Minimum Air Flow {m3/s}
  ,                                       !- Cooling Minimum Air Flow Fraction
  DesignDay,                              !- Heating Design Air Flow Method
  ,                                       !- Heating Design Air Flow Rate {m3/s}
  ,                                       !- Heating Maximum Air Flow per Zone Floor Area {m3/s-m2}
  ,                                       !- Heating Maximum Air Flow {m3/s}
  ,                                       !- Heating Maximum Air Flow Fraction
  ,                                       !- Design Zone Air Distribution Effectiveness in Cooling Mode
  ,                                       !- Design Zone Air Distribution Effectiveness in Heating Mode
  No,                                     !- Account for Dedicated Outdoor Air System
  NeutralSupplyAir,                       !- Dedicated Outdoor Air System Control Strategy
  Autosize,                               !- Dedicated Outdoor Air Low Setpoint Temperature for Design {C}
  Autosize;                               !- Dedicated Outdoor Air High Setpoint Temperature for Design {C}

OS:ZoneHVAC:EquipmentList,
  {30be3aba-27ec-40a7-b68b-a35de5f1c161}, !- Handle
  {eace9f32-7be8-4a86-90f0-4cd7b02305c6}, !- Name
  {f0468d2c-fa01-4223-8712-17d6df66a65b}; !- Thermal Zone

OS:Space,
  {200b3f91-e893-46d7-8189-3806bcd2f5e7}, !- Handle
  Resi_bot_Plenum,                     !- Name
  ,                                       !- Space Type Name
  ,                                       !- Default Construction Set Name
  ,                                       !- Default Schedule Set Name
  0,                                      !- Direction of Relative North {deg}
  0,                                      !- X Origin {m}
  0,                                      !- Y Origin {m}
  16.002,                                 !- Z Origin {m}
  {1df68f3b-238e-4da7-add8-0714daf608f4}, !- Building Story Name
  {f0468d2c-fa01-4223-8712-17d6df66a65b}, !- Thermal Zone Name
  No;                                     !- Part of Total Floor Area

OS:Surface,
  {eeb2dd77-ff4b-46c3-9f91-d94c85cd74c2}, !- Handle
  Office_ActiveStorage_Partition_4_0_10181, !- Name
  Wall,                                   !- Surface Type
  ,                                       !- Construction Name
  {d762c678-fe0b-41aa-9df5-ff3d11397e63}, !- Space Name
  Surface,                                !- Outside Boundary Condition
  {90482bcd-cb78-4be4-a199-482bb42bab4e}, !- Outside Boundary Condition Object
  NoSun,                                  !- Sun Exposure
  NoWind,                                 !- Wind Exposure
  0,                                      !- View Factor to Ground
  ,                                       !- Number of Vertices
  11.8567, 15.9868, 2.7432,               !- X,Y,Z Vertex 1 {m}
  11.8567, 15.9868, 0,                    !- X,Y,Z Vertex 2 {m}
  8.8087, 15.9868, 0,                     !- X,Y,Z Vertex 3 {m}
  8.8087, 15.9868, 2.7432;                !- X,Y,Z Vertex 4 {m}

OS:ThermalZone,
  {a3975826-a6d4-4c30-93d2-e050349f4063}, !- Handle
  Office_ActiveStorage Thermal Zone,   !- Name
  1,                                      !- Multiplier
  ,                                       !- Ceiling Height {m}
  43.3248,                                !- Volume {m3}
  ,                                       !- Floor Area {m2}
  TARP,                                   !- Zone Inside Convection Algorithm
  ,                                       !- Zone Outside Convection Algorithm
  ,                                       !- Zone Conditioning Equipment List Name
  {b0acaef5-602f-49b1-9656-54958075f657}, !- Zone Air Inlet Port List
  {cfa83b01-69cb-4d50-a3cb-7a2dfb3c59ce}, !- Zone Air Exhaust Port List
  {d60e7ca2-3bf4-4600-ac31-5d2b70720f45}, !- Zone Air Node Name
  {aea9bf91-a1db-4015-8243-badca247f773}, !- Zone Return Air Port List
  ,                                       !- Primary Daylighting Control Name
  ,                                       !- Fraction of Zone Controlled by Primary Daylighting Control
  ,                                       !- Secondary Daylighting Control Name
  ,                                       !- Fraction of Zone Controlled by Secondary Daylighting Control
  ,                                       !- Illuminance Map Name
  {50dc627a-d9a9-4d98-9424-ac00c634b107}, !- Group Rendering Name
  ,                                       !- Thermostat Name
  No;                                     !- Use Ideal Air Loads

OS:PortList,
  {aea9bf91-a1db-4015-8243-badca247f773}, !- Handle
  Port List 139,                          !- Name
  {a3975826-a6d4-4c30-93d2-e050349f4063}, !- HVAC Component
  ;                                       !- Port 1

OS:Node,
  {73352c01-c438-4de6-8561-c5aa30d1ff74}, !- Handle
  {e69393e7-2da6-49fe-86af-753faf3025ab}, !- Name
  {d60e7ca2-3bf4-4600-ac31-5d2b70720f45}, !- Inlet Port
  ;                                       !- Outlet Port

OS:Connection,
  {d60e7ca2-3bf4-4600-ac31-5d2b70720f45}, !- Handle
  {068e5554-4154-4aa5-b90e-4e93d6826e4f}, !- Name
  {a3975826-a6d4-4c30-93d2-e050349f4063}, !- Source Object
  11,                                     !- Outlet Port
  {73352c01-c438-4de6-8561-c5aa30d1ff74}, !- Target Object
  2;                                      !- Inlet Port

OS:PortList,
  {b0acaef5-602f-49b1-9656-54958075f657}, !- Handle
  {b33c6b8b-8579-434b-9926-0db08844bb5d}, !- Name
  {a3975826-a6d4-4c30-93d2-e050349f4063}; !- HVAC Component

OS:PortList,
  {cfa83b01-69cb-4d50-a3cb-7a2dfb3c59ce}, !- Handle
  {1b8bb235-ca9f-4ea5-8b4c-57c09cd2a76a}, !- Name
  {a3975826-a6d4-4c30-93d2-e050349f4063}; !- HVAC Component

OS:Sizing:Zone,
  {dac99720-f82f-4c34-b8e6-98c28a500e99}, !- Handle
  {a3975826-a6d4-4c30-93d2-e050349f4063}, !- Zone or ZoneList Name
  SupplyAirTemperature,                   !- Zone Cooling Design Supply Air Temperature Input Method
  14,                                     !- Zone Cooling Design Supply Air Temperature {C}
  11.11,                                  !- Zone Cooling Design Supply Air Temperature Difference {deltaC}
  SupplyAirTemperature,                   !- Zone Heating Design Supply Air Temperature Input Method
  40,                                     !- Zone Heating Design Supply Air Temperature {C}
  11.11,                                  !- Zone Heating Design Supply Air Temperature Difference {deltaC}
  0.0085,                                 !- Zone Cooling Design Supply Air Humidity Ratio {kg-H2O/kg-air}
  0.008,                                  !- Zone Heating Design Supply Air Humidity Ratio {kg-H2O/kg-air}
  ,                                       !- Zone Heating Sizing Factor
  ,                                       !- Zone Cooling Sizing Factor
  DesignDay,                              !- Cooling Design Air Flow Method
  ,                                       !- Cooling Design Air Flow Rate {m3/s}
  ,                                       !- Cooling Minimum Air Flow per Zone Floor Area {m3/s-m2}
  ,                                       !- Cooling Minimum Air Flow {m3/s}
  ,                                       !- Cooling Minimum Air Flow Fraction
  DesignDay,                              !- Heating Design Air Flow Method
  ,                                       !- Heating Design Air Flow Rate {m3/s}
  ,                                       !- Heating Maximum Air Flow per Zone Floor Area {m3/s-m2}
  ,                                       !- Heating Maximum Air Flow {m3/s}
  ,                                       !- Heating Maximum Air Flow Fraction
  ,                                       !- Design Zone Air Distribution Effectiveness in Cooling Mode
  ,                                       !- Design Zone Air Distribution Effectiveness in Heating Mode
  No,                                     !- Account for Dedicated Outdoor Air System
  NeutralSupplyAir,                       !- Dedicated Outdoor Air System Control Strategy
  Autosize,                               !- Dedicated Outdoor Air Low Setpoint Temperature for Design {C}
  Autosize;                               !- Dedicated Outdoor Air High Setpoint Temperature for Design {C}

OS:ZoneHVAC:EquipmentList,
  {630f9917-9065-449a-887c-0e979e49f817}, !- Handle
  {0696d817-139d-44f1-ba9b-645d9293434a}, !- Name
  {a3975826-a6d4-4c30-93d2-e050349f4063}; !- Thermal Zone

OS:Space,
  {d762c678-fe0b-41aa-9df5-ff3d11397e63}, !- Handle
  Office_ActiveStorage,                !- Name
  {41b4612c-84b7-484a-9fc3-f77ef78e26ca}, !- Space Type Name
  ,                                       !- Default Construction Set Name
  ,                                       !- Default Schedule Set Name
  0,                                      !- Direction of Relative North {deg}
  0,                                      !- X Origin {m}
  0,                                      !- Y Origin {m}
  9.7536,                                 !- Z Origin {m}
  {962a8caa-4d57-459d-9e08-4b43c669e44b}, !- Building Story Name
  {a3975826-a6d4-4c30-93d2-e050349f4063}, !- Thermal Zone Name
  Yes;                                    !- Part of Total Floor Area

OS:Surface,
  {585c09fd-ae7a-4f20-a1f8-e497cd355829}, !- Handle
  Resi_mid_ElevatorShaft_1_Floor_0_0_10351, !- Name
  Floor,                                  !- Surface Type
  ,                                       !- Construction Name
  {f17ecacb-39b4-490a-98e6-83b615fa51e1}, !- Space Name
  Surface,                                !- Outside Boundary Condition
  {74338242-25fa-4d81-999e-89a29d39b6e7}, !- Outside Boundary Condition Object
  NoSun,                                  !- Sun Exposure
  NoWind,                                 !- Wind Exposure
  0,                                      !- View Factor to Ground
  ,                                       !- Number of Vertices
  34.7167, 20.5588, 0,                    !- X,Y,Z Vertex 1 {m}
  34.7167, 18.4252, 0,                    !- X,Y,Z Vertex 2 {m}
  11.8567, 18.4252, 0,                    !- X,Y,Z Vertex 3 {m}
  11.8567, 20.5588, 0;                    !- X,Y,Z Vertex 4 {m}

OS:ThermalZone,
  {dd8d0c4d-3b1b-4975-87c3-32e47f81823a}, !- Handle
  Resi_mid_ElevatorShaft_1 Thermal Zone, !- Name
  1,                                      !- Multiplier
  ,                                       !- Ceiling Height {m}
  133.7971,                               !- Volume {m3}
  ,                                       !- Floor Area {m2}
  TARP,                                   !- Zone Inside Convection Algorithm
  ,                                       !- Zone Outside Convection Algorithm
  ,                                       !- Zone Conditioning Equipment List Name
  {b1f75c62-5e0a-41c1-9fc9-d65e2a2dabd0}, !- Zone Air Inlet Port List
  {52ef2335-5440-40f8-9a4f-c287434a9b2e}, !- Zone Air Exhaust Port List
  {d73b0c7b-4b35-47db-9368-43816dc2d044}, !- Zone Air Node Name
  {ce3ccaa2-c01c-4583-aaa2-6bb64d4b2afc}, !- Zone Return Air Port List
  ,                                       !- Primary Daylighting Control Name
  ,                                       !- Fraction of Zone Controlled by Primary Daylighting Control
  ,                                       !- Secondary Daylighting Control Name
  ,                                       !- Fraction of Zone Controlled by Secondary Daylighting Control
  ,                                       !- Illuminance Map Name
  {f9fb9cb2-7ca4-4b05-b650-070c31755c05}, !- Group Rendering Name
  ,                                       !- Thermostat Name
  No;                                     !- Use Ideal Air Loads

OS:PortList,
  {ce3ccaa2-c01c-4583-aaa2-6bb64d4b2afc}, !- Handle
  Port List 137,                          !- Name
  {dd8d0c4d-3b1b-4975-87c3-32e47f81823a}, !- HVAC Component
  ;                                       !- Port 1

OS:Node,
  {b81ae05e-4dcf-4563-a002-5f5faae32126}, !- Handle
  {d3f861a5-eff9-46c4-8e9a-13a0d388bef1}, !- Name
  {d73b0c7b-4b35-47db-9368-43816dc2d044}, !- Inlet Port
  ;                                       !- Outlet Port

OS:Connection,
  {d73b0c7b-4b35-47db-9368-43816dc2d044}, !- Handle
  {73a8789d-b04c-4d6e-a584-56a284259ff8}, !- Name
  {dd8d0c4d-3b1b-4975-87c3-32e47f81823a}, !- Source Object
  11,                                     !- Outlet Port
  {b81ae05e-4dcf-4563-a002-5f5faae32126}, !- Target Object
  2;                                      !- Inlet Port

OS:PortList,
  {b1f75c62-5e0a-41c1-9fc9-d65e2a2dabd0}, !- Handle
  {87c1e23d-9a55-49dc-a019-9bbe36bb67b8}, !- Name
  {dd8d0c4d-3b1b-4975-87c3-32e47f81823a}; !- HVAC Component

OS:PortList,
  {52ef2335-5440-40f8-9a4f-c287434a9b2e}, !- Handle
  {2738aca0-2cf0-4303-8cdb-f39794c828ff}, !- Name
  {dd8d0c4d-3b1b-4975-87c3-32e47f81823a}; !- HVAC Component

OS:Sizing:Zone,
  {b5b42112-427c-4f52-aba7-443f47dd5fc9}, !- Handle
  {dd8d0c4d-3b1b-4975-87c3-32e47f81823a}, !- Zone or ZoneList Name
  SupplyAirTemperature,                   !- Zone Cooling Design Supply Air Temperature Input Method
  14,                                     !- Zone Cooling Design Supply Air Temperature {C}
  11.11,                                  !- Zone Cooling Design Supply Air Temperature Difference {deltaC}
  SupplyAirTemperature,                   !- Zone Heating Design Supply Air Temperature Input Method
  40,                                     !- Zone Heating Design Supply Air Temperature {C}
  11.11,                                  !- Zone Heating Design Supply Air Temperature Difference {deltaC}
  0.0085,                                 !- Zone Cooling Design Supply Air Humidity Ratio {kg-H2O/kg-air}
  0.008,                                  !- Zone Heating Design Supply Air Humidity Ratio {kg-H2O/kg-air}
  ,                                       !- Zone Heating Sizing Factor
  ,                                       !- Zone Cooling Sizing Factor
  DesignDay,                              !- Cooling Design Air Flow Method
  ,                                       !- Cooling Design Air Flow Rate {m3/s}
  ,                                       !- Cooling Minimum Air Flow per Zone Floor Area {m3/s-m2}
  ,                                       !- Cooling Minimum Air Flow {m3/s}
  ,                                       !- Cooling Minimum Air Flow Fraction
  DesignDay,                              !- Heating Design Air Flow Method
  ,                                       !- Heating Design Air Flow Rate {m3/s}
  ,                                       !- Heating Maximum Air Flow per Zone Floor Area {m3/s-m2}
  ,                                       !- Heating Maximum Air Flow {m3/s}
  ,                                       !- Heating Maximum Air Flow Fraction
  ,                                       !- Design Zone Air Distribution Effectiveness in Cooling Mode
  ,                                       !- Design Zone Air Distribution Effectiveness in Heating Mode
  No,                                     !- Account for Dedicated Outdoor Air System
  NeutralSupplyAir,                       !- Dedicated Outdoor Air System Control Strategy
  Autosize,                               !- Dedicated Outdoor Air Low Setpoint Temperature for Design {C}
  Autosize;                               !- Dedicated Outdoor Air High Setpoint Temperature for Design {C}

OS:ZoneHVAC:EquipmentList,
  {e96a30f6-e09c-4059-b070-7163854e8e5b}, !- Handle
  {33650ea9-6fd3-4dab-b1aa-6712a7d7fe6c}, !- Name
  {dd8d0c4d-3b1b-4975-87c3-32e47f81823a}; !- Thermal Zone

OS:Space,
  {f17ecacb-39b4-490a-98e6-83b615fa51e1}, !- Handle
  Resi_mid_ElevatorShaft_1,            !- Name
  {b2e624ed-a317-422f-ba4d-4962369d8dd3}, !- Space Type Name
  ,                                       !- Default Construction Set Name
  ,                                       !- Default Schedule Set Name
  0,                                      !- Direction of Relative North {deg}
  0,                                      !- X Origin {m}
  0,                                      !- Y Origin {m}
  16.764,                                 !- Z Origin {m}
  {86958ff3-00f0-434f-a698-cd692e32f6ee}, !- Building Story Name
  {dd8d0c4d-3b1b-4975-87c3-32e47f81823a}, !- Thermal Zone Name
  Yes;                                    !- Part of Total Floor Area

OS:SubSurface,
  {9a65e046-aee8-4a8c-b81a-973342f5b37b}, !- Handle
  Resi_bot_S_Apartment_4_Wall_5_0_0_0_0_0_Win, !- Name
  FixedWindow,                            !- Sub Surface Type
  ,                                       !- Construction Name
  {cd4594cf-d940-4c1e-9779-6a9a24ad1d11}, !- Surface Name
  ,                                       !- Outside Boundary Condition Object
  ,                                       !- View Factor to Ground
  ,                                       !- Shading Control Name
  ,                                       !- Frame and Divider Name
  1,                                      !- Multiplier
  ,                                       !- Number of Vertices
  31.0638, 0, 2.4103,                     !- X,Y,Z Vertex 1 {m}
  31.0638, 0, 0.2999,                     !- X,Y,Z Vertex 2 {m}
  38.7961, 0, 0.2999,                     !- X,Y,Z Vertex 3 {m}
  38.7961, 0, 2.4103;                     !- X,Y,Z Vertex 4 {m}

OS:Surface,
  {cd4594cf-d940-4c1e-9779-6a9a24ad1d11}, !- Handle
  Resi_bot_S_Apartment_4_Wall_5_0_0,   !- Name
  Wall,                                   !- Surface Type
  ,                                       !- Construction Name
  {4965f71b-ba57-4958-bcc7-04af3d509ccd}, !- Space Name
  Outdoors,                               !- Outside Boundary Condition
  ,                                       !- Outside Boundary Condition Object
  SunExposed,                             !- Sun Exposure
  WindExposed,                            !- Wind Exposure
  ,                                       !- View Factor to Ground
  ,                                       !- Number of Vertices
  31.0488, 0, 2.7432,                     !- X,Y,Z Vertex 1 {m}
  31.0488, 0, 0,                          !- X,Y,Z Vertex 2 {m}
  38.8111, 0, 0,                          !- X,Y,Z Vertex 3 {m}
  38.8111, 0, 2.7432;                     !- X,Y,Z Vertex 4 {m}

OS:ThermalZone,
  {230ed072-fc17-44cb-845f-4a72a4bd0b55}, !- Handle
  Resi_bot_S_Apartment_4 Thermal Zone, !- Name
  1,                                      !- Multiplier
  ,                                       !- Ceiling Height {m}
  259.2877,                               !- Volume {m3}
  ,                                       !- Floor Area {m2}
  TARP,                                   !- Zone Inside Convection Algorithm
  ,                                       !- Zone Outside Convection Algorithm
  ,                                       !- Zone Conditioning Equipment List Name
  {fbd43c0e-f11b-49af-ab71-34300e049446}, !- Zone Air Inlet Port List
  {19f9937e-1cbe-4c09-80c4-35a2a50e6d84}, !- Zone Air Exhaust Port List
  {81ae2957-4ecf-469d-92e5-e8752a1e91a2}, !- Zone Air Node Name
  {9816296e-97c8-432c-95c4-4a861193cc4b}, !- Zone Return Air Port List
  ,                                       !- Primary Daylighting Control Name
  ,                                       !- Fraction of Zone Controlled by Primary Daylighting Control
  ,                                       !- Secondary Daylighting Control Name
  ,                                       !- Fraction of Zone Controlled by Secondary Daylighting Control
  ,                                       !- Illuminance Map Name
  {81c643dd-874b-4145-9b31-e34e71a69e62}, !- Group Rendering Name
  ,                                       !- Thermostat Name
  No;                                     !- Use Ideal Air Loads

OS:PortList,
  {9816296e-97c8-432c-95c4-4a861193cc4b}, !- Handle
  Port List 136,                          !- Name
  {230ed072-fc17-44cb-845f-4a72a4bd0b55}, !- HVAC Component
  ;                                       !- Port 1

OS:Node,
  {2dc49f3f-5407-4f8f-805b-53c0e9af2481}, !- Handle
  {1d4f497f-0274-4cc7-b89b-ff0b4d464d40}, !- Name
  {81ae2957-4ecf-469d-92e5-e8752a1e91a2}, !- Inlet Port
  ;                                       !- Outlet Port

OS:Connection,
  {81ae2957-4ecf-469d-92e5-e8752a1e91a2}, !- Handle
  {a361048a-1df3-4462-a776-37956a0f02e9}, !- Name
  {230ed072-fc17-44cb-845f-4a72a4bd0b55}, !- Source Object
  11,                                     !- Outlet Port
  {2dc49f3f-5407-4f8f-805b-53c0e9af2481}, !- Target Object
  2;                                      !- Inlet Port

OS:PortList,
  {fbd43c0e-f11b-49af-ab71-34300e049446}, !- Handle
  {073ef1c6-0445-41f1-9fa6-9b1fb6cefa05}, !- Name
  {230ed072-fc17-44cb-845f-4a72a4bd0b55}; !- HVAC Component

OS:PortList,
  {19f9937e-1cbe-4c09-80c4-35a2a50e6d84}, !- Handle
  {70cc24d3-4843-4424-8291-de5dd079af39}, !- Name
  {230ed072-fc17-44cb-845f-4a72a4bd0b55}; !- HVAC Component

OS:Sizing:Zone,
  {56786d77-9c55-434c-bd5d-b5afb7cd2140}, !- Handle
  {230ed072-fc17-44cb-845f-4a72a4bd0b55}, !- Zone or ZoneList Name
  SupplyAirTemperature,                   !- Zone Cooling Design Supply Air Temperature Input Method
  14,                                     !- Zone Cooling Design Supply Air Temperature {C}
  11.11,                                  !- Zone Cooling Design Supply Air Temperature Difference {deltaC}
  SupplyAirTemperature,                   !- Zone Heating Design Supply Air Temperature Input Method
  40,                                     !- Zone Heating Design Supply Air Temperature {C}
  11.11,                                  !- Zone Heating Design Supply Air Temperature Difference {deltaC}
  0.0085,                                 !- Zone Cooling Design Supply Air Humidity Ratio {kg-H2O/kg-air}
  0.008,                                  !- Zone Heating Design Supply Air Humidity Ratio {kg-H2O/kg-air}
  ,                                       !- Zone Heating Sizing Factor
  ,                                       !- Zone Cooling Sizing Factor
  DesignDay,                              !- Cooling Design Air Flow Method