
OS:Version,
  {60617d64-242b-4467-befb-9c2a31f10621}, !- Handle
  2.3.0;                                  !- Version Identifier

OS:BuildingStory,
  {d203be69-4167-4214-95c0-f032ecaa06c4}, !- Handle
  E1 Ground Flr,                          !- Name
  ,                                       !- Nominal Z Coordinate {m}
  ,                                       !- Nominal Floor to Floor Height {m}
  ,                                       !- Default Construction Set Name
  ,                                       !- Default Schedule Set Name
  {cb240288-f163-4779-a6bd-59e44c3467ea}; !- Group Rendering Name

OS:BuildingStory,
  {064df749-4ea9-46dc-b7a4-91b8f875a7b7}, !- Handle
  E2 Ground Flr,                          !- Name
  ,                                       !- Nominal Z Coordinate {m}
  ,                                       !- Nominal Floor to Floor Height {m}
  ,                                       !- Default Construction Set Name
  ,                                       !- Default Schedule Set Name
  {5f914613-d205-4de0-8383-45afcfc3ac12}; !- Group Rendering Name

OS:BuildingStory,
  {64d12994-18b5-42eb-9485-76eaa97aa1b6}, !- Handle
  E3 Ground Flr,                          !- Name
  ,                                       !- Nominal Z Coordinate {m}
  ,                                       !- Nominal Floor to Floor Height {m}
  ,                                       !- Default Construction Set Name
  ,                                       !- Default Schedule Set Name
  {d1b51b47-9682-4fd3-b442-46bda8f1e063}; !- Group Rendering Name

OS:BuildingStory,
  {165fb3be-1df8-4ece-966b-fce5fc179fe0}, !- Handle
  E4 Ground Flr,                          !- Name
  ,                                       !- Nominal Z Coordinate {m}
  ,                                       !- Nominal Floor to Floor Height {m}
  ,                                       !- Default Construction Set Name
  ,                                       !- Default Schedule Set Name
  {4310e3dd-f7cf-4840-985e-43f43348d429}; !- Group Rendering Name

OS:BuildingStory,
  {fec0d799-6042-494b-87c1-29d49f89d34f}, !- Handle
  E17 Ground Flr,                         !- Name
  ,                                       !- Nominal Z Coordinate {m}
  ,                                       !- Nominal Floor to Floor Height {m}
  ,                                       !- Default Construction Set Name
  ,                                       !- Default Schedule Set Name
  {79f515f8-8882-47a7-bd72-e97ea3ab38c9}; !- Group Rendering Name

OS:Space,
  {e50495dc-8151-4789-a2a6-df7cb8f6a8cc}, !- Handle
  E1 West Perim Spc (G.W1),               !- Name
  {0a12a5cb-5e43-4ef5-b856-88652ee26069}, !- Space Type Name
  ,                                       !- Default Construction Set Name
  ,                                       !- Default Schedule Set Name
  -0,                                     !- Direction of Relative North {deg}
  0,                                      !- X Origin {m}
  0,                                      !- Y Origin {m}
  0,                                      !- Z Origin {m}
  {d203be69-4167-4214-95c0-f032ecaa06c4}, !- Building Story Name
  ;                                       !- Thermal Zone Name

OS:Space,
  {beff84d3-39c8-428d-96b7-66c52e330846}, !- Handle
  E2 West Perim Spc (G.W1),               !- Name
  {0a12a5cb-5e43-4ef5-b856-88652ee26069}, !- Space Type Name
  ,                                       !- Default Construction Set Name
  ,                                       !- Default Schedule Set Name
  -0,                                     !- Direction of Relative North {deg}
  0,                                      !- X Origin {m}
  0,                                      !- Y Origin {m}
  0,                                      !- Z Origin {m}
  {064df749-4ea9-46dc-b7a4-91b8f875a7b7}, !- Building Story Name
  ;                                       !- Thermal Zone Name

OS:Space,
  {500fa221-4ce4-47ee-8471-33ca5e885672}, !- Handle
  E2 South Perim Spc (G.S2),              !- Name
  {0a12a5cb-5e43-4ef5-b856-88652ee26069}, !- Space Type Name
  ,                                       !- Default Construction Set Name
  ,                                       !- Default Schedule Set Name
  -0,                                     !- Direction of Relative North {deg}
  0,                                      !- X Origin {m}
  0,                                      !- Y Origin {m}
  0,                                      !- Z Origin {m}
  {064df749-4ea9-46dc-b7a4-91b8f875a7b7}, !- Building Story Name
  ;                                       !- Thermal Zone Name

OS:Space,
  {4353422b-5405-4abc-8b24-4fd3433670d4}, !- Handle
  E2 North Perim Spc (G.N3),              !- Name
  {0a12a5cb-5e43-4ef5-b856-88652ee26069}, !- Space Type Name
  ,                                       !- Default Construction Set Name
  ,                                       !- Default Schedule Set Name
  -0,                                     !- Direction of Relative North {deg}
  0,                                      !- X Origin {m}
  0,                                      !- Y Origin {m}
  0,                                      !- Z Origin {m}
  {064df749-4ea9-46dc-b7a4-91b8f875a7b7}, !- Building Story Name
  ;                                       !- Thermal Zone Name

OS:Space,
  {221623db-027f-452e-aaed-f102a45db12f}, !- Handle
  E2 West Perim Plnm (G.W4),              !- Name
  ,                                       !- Space Type Name
  ,                                       !- Default Construction Set Name
  ,                                       !- Default Schedule Set Name
  -0,                                     !- Direction of Relative North {deg}
  0,                                      !- X Origin {m}
  0,                                      !- Y Origin {m}
  0,                                      !- Z Origin {m}
  {064df749-4ea9-46dc-b7a4-91b8f875a7b7}, !- Building Story Name
  ;                                       !- Thermal Zone Name

OS:Space,
  {2d9e3bc8-c2b7-473d-afb2-8b24a736083c}, !- Handle
  E2 South Perim Plnm (G.S5),             !- Name
  ,                                       !- Space Type Name
  ,                                       !- Default Construction Set Name
  ,                                       !- Default Schedule Set Name
  -0,                                     !- Direction of Relative North {deg}
  0,                                      !- X Origin {m}
  0,                                      !- Y Origin {m}
  0,                                      !- Z Origin {m}
  {064df749-4ea9-46dc-b7a4-91b8f875a7b7}, !- Building Story Name
  ;                                       !- Thermal Zone Name

OS:Space,
  {96fb9ce7-4b50-4af6-9b9d-13a9f65661ea}, !- Handle
  E2 North Perim Plnm (G.N6),             !- Name
  ,                                       !- Space Type Name
  ,                                       !- Default Construction Set Name
  ,                                       !- Default Schedule Set Name
  -0,                                     !- Direction of Relative North {deg}
  0,                                      !- X Origin {m}
  0,                                      !- Y Origin {m}
  0,                                      !- Z Origin {m}
  {064df749-4ea9-46dc-b7a4-91b8f875a7b7}, !- Building Story Name
  ;                                       !- Thermal Zone Name

OS:Space,
  {60aefd9b-53f5-4bd4-8b19-dd51ef529560}, !- Handle
  E3 SW Perim Spc (G.SW1),                !- Name
  {dc4c2266-7e8c-4e1b-9467-82f739bc2954}, !- Space Type Name
  ,                                       !- Default Construction Set Name
  ,                                       !- Default Schedule Set Name
  -0,                                     !- Direction of Relative North {deg}
  0,                                      !- X Origin {m}
  0,                                      !- Y Origin {m}
  0,                                      !- Z Origin {m}
  {64d12994-18b5-42eb-9485-76eaa97aa1b6}, !- Building Story Name
  ;                                       !- Thermal Zone Name

OS:Space,
  {a0dec638-0c3e-41d4-8673-ed0c33024e18}, !- Handle
  E3 NE Perim Spc (G.NE2),                !- Name
  {52a7395f-7c11-4cf8-add8-30685f2fc6f0}, !- Space Type Name
  ,                                       !- Default Construction Set Name
  ,                                       !- Default Schedule Set Name
  -0,                                     !- Direction of Relative North {deg}
  0,                                      !- X Origin {m}
  0,                                      !- Y Origin {m}
  0,                                      !- Z Origin {m}
  {64d12994-18b5-42eb-9485-76eaa97aa1b6}, !- Building Story Name
  ;                                       !- Thermal Zone Name

OS:Space,
  {68acd522-b11b-494b-800d-fc7b7c80ea51}, !- Handle
  E4 South Perim Spc (G.S1),              !- Name
  {0a12a5cb-5e43-4ef5-b856-88652ee26069}, !- Space Type Name
  ,                                       !- Default Construction Set Name
  ,                                       !- Default Schedule Set Name
  -0,                                     !- Direction of Relative North {deg}
  0,                                      !- X Origin {m}
  0,                                      !- Y Origin {m}
  0,                                      !- Z Origin {m}
  {165fb3be-1df8-4ece-966b-fce5fc179fe0}, !- Building Story Name
  ,                                       !- Thermal Zone Name
  ,                                       !- Part of Total Floor Area
  ,                                       !- Design Specification Outdoor Air Object Name
  ;                                       !- Building Unit Name

OS:Space,
  {a4fcf87d-f174-4fcf-9464-bdb5eeb9ecc8}, !- Handle
  E4 East Perim Spc (G.E2),               !- Name
  {0a12a5cb-5e43-4ef5-b856-88652ee26069}, !- Space Type Name
  ,                                       !- Default Construction Set Name
  ,                                       !- Default Schedule Set Name
  -0,                                     !- Direction of Relative North {deg}
  0,                                      !- X Origin {m}
  0,                                      !- Y Origin {m}
  0,                                      !- Z Origin {m}
  {165fb3be-1df8-4ece-966b-fce5fc179fe0}, !- Building Story Name
  ;                                       !- Thermal Zone Name

OS:Space,
  {e3a7143f-3cc0-4d29-bb28-e71f10db3b11}, !- Handle
  E4 North Perim Spc (G.N3),              !- Name
  {0a12a5cb-5e43-4ef5-b856-88652ee26069}, !- Space Type Name
  ,                                       !- Default Construction Set Name
  ,                                       !- Default Schedule Set Name
  -0,                                     !- Direction of Relative North {deg}
  0,                                      !- X Origin {m}
  0,                                      !- Y Origin {m}
  0,                                      !- Z Origin {m}
  {165fb3be-1df8-4ece-966b-fce5fc179fe0}, !- Building Story Name
  ,                                       !- Thermal Zone Name
  ,                                       !- Part of Total Floor Area
  ,                                       !- Design Specification Outdoor Air Object Name
  ;                                       !- Building Unit Name

OS:Space,
  {2a5f24fb-2e9c-4d98-a8c8-07c8349cc494}, !- Handle
  E4 West Perim Spc (G.W4),               !- Name
  {0a12a5cb-5e43-4ef5-b856-88652ee26069}, !- Space Type Name
  ,                                       !- Default Construction Set Name
  ,                                       !- Default Schedule Set Name
  -0,                                     !- Direction of Relative North {deg}
  0,                                      !- X Origin {m}
  0,                                      !- Y Origin {m}
  0,                                      !- Z Origin {m}
  {165fb3be-1df8-4ece-966b-fce5fc179fe0}, !- Building Story Name
  ,                                       !- Thermal Zone Name
  ,                                       !- Part of Total Floor Area
  ,                                       !- Design Specification Outdoor Air Object Name
  ;                                       !- Building Unit Name

OS:Space,
  {4cae3074-8e83-40cd-b3ac-8bc11c452293}, !- Handle
  E4 Core Spc (G.C5),                     !- Name
  {29243df3-b501-44c7-8333-1fce59002668}, !- Space Type Name
  ,                                       !- Default Construction Set Name
  ,                                       !- Default Schedule Set Name
  -0,                                     !- Direction of Relative North {deg}
  0,                                      !- X Origin {m}
  0,                                      !- Y Origin {m}
  0,                                      !- Z Origin {m}
  {165fb3be-1df8-4ece-966b-fce5fc179fe0}, !- Building Story Name
  ;                                       !- Thermal Zone Name

OS:Space,
  {6fe34b86-6201-49da-aab9-39f6cfd7cdb2}, !- Handle
  E4 Core Spc (G.C6),                     !- Name
  {0a12a5cb-5e43-4ef5-b856-88652ee26069}, !- Space Type Name
  ,                                       !- Default Construction Set Name
  ,                                       !- Default Schedule Set Name
  -0,                                     !- Direction of Relative North {deg}
  0,                                      !- X Origin {m}
  0,                                      !- Y Origin {m}
  0,                                      !- Z Origin {m}
  {165fb3be-1df8-4ece-966b-fce5fc179fe0}, !- Building Story Name
  ;                                       !- Thermal Zone Name

OS:Space,
  {917f331b-f310-4836-96d9-4f5ac8b88123}, !- Handle
  E4 South Perim Plnm (G.S7),             !- Name
  ,                                       !- Space Type Name
  ,                                       !- Default Construction Set Name
  ,                                       !- Default Schedule Set Name
  -0,                                     !- Direction of Relative North {deg}
  0,                                      !- X Origin {m}
  0,                                      !- Y Origin {m}
  0,                                      !- Z Origin {m}
  {165fb3be-1df8-4ece-966b-fce5fc179fe0}, !- Building Story Name
  ,                                       !- Thermal Zone Name
  ,                                       !- Part of Total Floor Area
  ,                                       !- Design Specification Outdoor Air Object Name
  ;                                       !- Building Unit Name

OS:Space,
  {48953b8e-bd47-47fe-95ba-134ccadffc70}, !- Handle
  E4 East Perim Plnm (G.E8),              !- Name
  ,                                       !- Space Type Name
  ,                                       !- Default Construction Set Name
  ,                                       !- Default Schedule Set Name
  -0,                                     !- Direction of Relative North {deg}
  0,                                      !- X Origin {m}
  0,                                      !- Y Origin {m}
  0,                                      !- Z Origin {m}
  {165fb3be-1df8-4ece-966b-fce5fc179fe0}, !- Building Story Name
  ;                                       !- Thermal Zone Name

OS:Space,
  {d9e92911-eacb-4d07-a70c-8ccd0b2ab15f}, !- Handle
  E4 North Perim Plnm (G.N9),             !- Name
  ,                                       !- Space Type Name
  ,                                       !- Default Construction Set Name
  ,                                       !- Default Schedule Set Name
  -0,                                     !- Direction of Relative North {deg}
  0,                                      !- X Origin {m}
  0,                                      !- Y Origin {m}
  0,                                      !- Z Origin {m}
  {165fb3be-1df8-4ece-966b-fce5fc179fe0}, !- Building Story Name
  ;                                       !- Thermal Zone Name

OS:Space,
  {0ad01dd0-b522-497e-bd8c-e0cf04453ef2}, !- Handle
  E4 West Perim Plnm (G.W10),             !- Name
  ,                                       !- Space Type Name
  ,                                       !- Default Construction Set Name
  ,                                       !- Default Schedule Set Name
  -0,                                     !- Direction of Relative North {deg}
  0,                                      !- X Origin {m}
  0,                                      !- Y Origin {m}
  0,                                      !- Z Origin {m}
  {165fb3be-1df8-4ece-966b-fce5fc179fe0}, !- Building Story Name
  ,                                       !- Thermal Zone Name
  ,                                       !- Part of Total Floor Area
  ,                                       !- Design Specification Outdoor Air Object Name
  ;                                       !- Building Unit Name

OS:Space,
  {74571345-81b0-487b-9dba-94ab8cd77628}, !- Handle
  E4 Core Plnm (G.C11),                   !- Name
  ,                                       !- Space Type Name
  ,                                       !- Default Construction Set Name
  ,                                       !- Default Schedule Set Name
  -0,                                     !- Direction of Relative North {deg}
  0,                                      !- X Origin {m}
  0,                                      !- Y Origin {m}
  0,                                      !- Z Origin {m}
  {165fb3be-1df8-4ece-966b-fce5fc179fe0}, !- Building Story Name
  ;                                       !- Thermal Zone Name

OS:Space,
  {f341ae76-a150-4c0a-b3fd-73a33f7d8c21}, !- Handle
  E4 Core Plnm (G.C12),                   !- Name
  ,                                       !- Space Type Name
  ,                                       !- Default Construction Set Name
  ,                                       !- Default Schedule Set Name
  -0,                                     !- Direction of Relative North {deg}
  0,                                      !- X Origin {m}
  0,                                      !- Y Origin {m}
  0,                                      !- Z Origin {m}
  {165fb3be-1df8-4ece-966b-fce5fc179fe0}, !- Building Story Name
  ;                                       !- Thermal Zone Name

OS:Space,
  {4bf3bbdb-acd4-4966-aa6f-beea6541b98b}, !- Handle
  E17 West Perim Spc (G.W1),              !- Name
  {b3a2cf32-672a-4bcc-96fe-e640ec2fbb0c}, !- Space Type Name
  ,                                       !- Default Construction Set Name
  ,                                       !- Default Schedule Set Name
  -0,                                     !- Direction of Relative North {deg}
  0,                                      !- X Origin {m}
  0,                                      !- Y Origin {m}
  0,                                      !- Z Origin {m}
  {fec0d799-6042-494b-87c1-29d49f89d34f}, !- Building Story Name
  ,                                       !- Thermal Zone Name
  ,                                       !- Part of Total Floor Area
  ,                                       !- Design Specification Outdoor Air Object Name
  ;                                       !- Building Unit Name

OS:Surface,
  {e0cb487b-08d7-41e7-a441-dfbe26d76c09}, !- Handle
  E1 South Wall (G.W1.E1),                !- Name
  Wall,                                   !- Surface Type
  ,                                       !- Construction Name
  {e50495dc-8151-4789-a2a6-df7cb8f6a8cc}, !- Space Name
  Outdoors,                               !- Outside Boundary Condition
  ,                                       !- Outside Boundary Condition Object
  SunExposed,                             !- Sun Exposure
  WindExposed,                            !- Wind Exposure
  ,                                       !- View Factor to Ground
  ,                                       !- Number of Vertices
  0, 0, 3.9624,                           !- X,Y,Z Vertex 1 {m}
  0, 0, 0,                                !- X,Y,Z Vertex 2 {m}
  13.59408, -3.32958931187061e-15, 0,     !- X,Y,Z Vertex 3 {m}
  13.59408, -3.32958931187061e-15, 3.9624; !- X,Y,Z Vertex 4 {m}

OS:SubSurface,
  {c66a6997-ea06-4082-8e2e-bd2743d9b295}, !- Handle
  E1 South Win (G.W1.E1.W1),              !- Name
  FixedWindow,                            !- Sub Surface Type
  ,                                       !- Construction Name
  {e0cb487b-08d7-41e7-a441-dfbe26d76c09}, !- Surface Name
  ,                                       !- Outside Boundary Condition Object
  ,                                       !- View Factor to Ground
  ,                                       !- Shading Control Name
  ,                                       !- Frame and Divider Name
  ,                                       !- Multiplier
  ,                                       !- Number of Vertices
  5.6752236, 0, 2.667,                    !- X,Y,Z Vertex 1 {m}
  5.6752236, 0, 0.9144,                   !- X,Y,Z Vertex 2 {m}
  7.918838112, 0, 0.9144,                 !- X,Y,Z Vertex 3 {m}
  7.918838112, 0, 2.667;                  !- X,Y,Z Vertex 4 {m}

OS:Surface,
  {392b53e7-e14b-4b01-b96e-350b2d77fb0f}, !- Handle
  E1 North Wall (G.W1.E2),                !- Name
  Wall,                                   !- Surface Type
  ,                                       !- Construction Name
  {e50495dc-8151-4789-a2a6-df7cb8f6a8cc}, !- Space Name
  Outdoors,                               !- Outside Boundary Condition
  ,                                       !- Outside Boundary Condition Object
  SunExposed,                             !- Sun Exposure
  WindExposed,                            !- Wind Exposure
  ,                                       !- View Factor to Ground
  ,                                       !- Number of Vertices
  13.59408, 25.63368, 3.9624,             !- X,Y,Z Vertex 1 {m}
  13.59408, 25.63368, 0,                  !- X,Y,Z Vertex 2 {m}
  6.27844083247351e-15, 25.63368, 0,      !- X,Y,Z Vertex 3 {m}
  6.27844083247351e-15, 25.63368, 3.9624; !- X,Y,Z Vertex 4 {m}

OS:SubSurface,
  {614847bd-7b99-4ec3-ab39-af65f32e1038}, !- Handle
  E1 North Win (G.W1.E2.W1),              !- Name
  FixedWindow,                            !- Sub Surface Type
  ,                                       !- Construction Name
  {392b53e7-e14b-4b01-b96e-350b2d77fb0f}, !- Surface Name
  ,                                       !- Outside Boundary Condition Object
  ,                                       !- View Factor to Ground
  ,                                       !- Shading Control Name
  ,                                       !- Frame and Divider Name
  ,                                       !- Multiplier
  ,                                       !- Number of Vertices
  7.9188564, 25.63368, 2.667,             !- X,Y,Z Vertex 1 {m}
  7.9188564, 25.63368, 0.9144,            !- X,Y,Z Vertex 2 {m}
  5.675241888, 25.63368, 0.9144,          !- X,Y,Z Vertex 3 {m}
  5.675241888, 25.63368, 2.667;           !- X,Y,Z Vertex 4 {m}

OS:Surface,
  {6dd8bbb7-64f6-42b2-b0ae-869ac4481920}, !- Handle
  E1 West Wall (G.W1.E3),                 !- Name
  Wall,                                   !- Surface Type
  ,                                       !- Construction Name
  {e50495dc-8151-4789-a2a6-df7cb8f6a8cc}, !- Space Name
  Outdoors,                               !- Outside Boundary Condition
  ,                                       !- Outside Boundary Condition Object
  SunExposed,                             !- Sun Exposure
  WindExposed,                            !- Wind Exposure
  ,                                       !- View Factor to Ground
  ,                                       !- Number of Vertices
  6.27844083247351e-15, 25.63368, 3.9624, !- X,Y,Z Vertex 1 {m}
  6.27844083247351e-15, 25.63368, 0,      !- X,Y,Z Vertex 2 {m}
  -6.41186143763638e-31, 1.57045311723555e-46, 0, !- X,Y,Z Vertex 3 {m}
  -6.41186143763638e-31, 1.57045311723555e-46, 3.9624; !- X,Y,Z Vertex 4 {m}

OS:SubSurface,
  {6871264d-7551-401c-8fe5-67a2db97d487}, !- Handle
  E1 West Win (G.W1.E3.W1),               !- Name
  FixedWindow,                            !- Sub Surface Type
  ,                                       !- Construction Name
  {6dd8bbb7-64f6-42b2-b0ae-869ac4481920}, !- Surface Name
  ,                                       !- Outside Boundary Condition Object
  ,                                       !- View Factor to Ground
  ,                                       !- Shading Control Name
  ,                                       !- Frame and Divider Name
  ,                                       !- Multiplier
  ,                                       !- Number of Vertices
  0, 14.93218248, 2.667,                  !- X,Y,Z Vertex 1 {m}
  0, 14.93218248, 0.9144,                 !- X,Y,Z Vertex 2 {m}
  0, 10.70149752, 0.9144,                 !- X,Y,Z Vertex 3 {m}
  0, 10.70149752, 2.667;                  !- X,Y,Z Vertex 4 {m}

OS:Surface,
  {cb805547-6243-4a88-9dd6-5c483387d1ea}, !- Handle
  E1 Roof (G.W1.E4),                      !- Name
  RoofCeiling,                            !- Surface Type
  ,                                       !- Construction Name
  {e50495dc-8151-4789-a2a6-df7cb8f6a8cc}, !- Space Name
  Outdoors,                               !- Outside Boundary Condition
  ,                                       !- Outside Boundary Condition Object
  SunExposed,                             !- Sun Exposure
  WindExposed,                            !- Wind Exposure
  ,                                       !- View Factor to Ground
  ,                                       !- Number of Vertices
  13.59408, -3.32958931187061e-15, 3.9624, !- X,Y,Z Vertex 1 {m}
  13.59408, 25.63368, 3.9624,             !- X,Y,Z Vertex 2 {m}
  6.27844083247351e-15, 25.63368, 3.9624, !- X,Y,Z Vertex 3 {m}
  0, 0, 3.9624;                           !- X,Y,Z Vertex 4 {m}

OS:Surface,
  {d6af371d-0a7c-4d8c-a38d-1334db6f6455}, !- Handle
  E1 East Wall (G.W1.I1),                 !- Name
  Wall,                                   !- Surface Type
  ,                                       !- Construction Name
  {e50495dc-8151-4789-a2a6-df7cb8f6a8cc}, !- Space Name
  Outdoors,                               !- Outside Boundary Condition
  ,                                       !- Outside Boundary Condition Object
  SunExposed,                             !- Sun Exposure
  WindExposed,                            !- Wind Exposure
  ,                                       !- View Factor to Ground
  ,                                       !- Number of Vertices
  13.59408, -3.32958931187061e-15, 3.9624, !- X,Y,Z Vertex 1 {m}
  13.59408, -3.32958931187061e-15, 0,     !- X,Y,Z Vertex 2 {m}
  13.59408, 25.63368, 0,                  !- X,Y,Z Vertex 3 {m}
  13.59408, 25.63368, 3.9624;             !- X,Y,Z Vertex 4 {m}

OS:Surface,
  {0af3b40b-cead-4bc5-8af6-5af5ffd57412}, !- Handle
  E1 Flr (G.W1.U1),                       !- Name
  Floor,                                  !- Surface Type
  ,                                       !- Construction Name
  {e50495dc-8151-4789-a2a6-df7cb8f6a8cc}, !- Space Name
  Ground,                                 !- Outside Boundary Condition
  ,                                       !- Outside Boundary Condition Object
  NoSun,                                  !- Sun Exposure
  NoWind,                                 !- Wind Exposure
  ,                                       !- View Factor to Ground
  ,                                       !- Number of Vertices
  13.59408, 25.63368, 0,                  !- X,Y,Z Vertex 1 {m}
  13.59408, -3.32958931187061e-15, 0,     !- X,Y,Z Vertex 2 {m}
  0, 0, 0,                                !- X,Y,Z Vertex 3 {m}
  6.27844083247351e-15, 25.63368, 0;      !- X,Y,Z Vertex 4 {m}

OS:Surface,
  {8740f84f-1c6a-4226-97f1-c4101544dc86}, !- Handle
  E2 South Wall (G.W1.I1),                !- Name
  Wall,                                   !- Surface Type
  ,                                       !- Construction Name
  {beff84d3-39c8-428d-96b7-66c52e330846}, !- Space Name
  Surface,                                !- Outside Boundary Condition
  {171ade18-3605-4df9-b362-7e7df04325cd}, !- Outside Boundary Condition Object
  NoSun,                                  !- Sun Exposure
  NoWind,                                 !- Wind Exposure
  ,                                       !- View Factor to Ground
  ,                                       !- Number of Vertices
  13.59408, 9.1927683048, 2.7432,         !- X,Y,Z Vertex 1 {m}
  13.59408, 9.1927683048, 0,              !- X,Y,Z Vertex 2 {m}
  34.76244, 9.1927683048, 0,              !- X,Y,Z Vertex 3 {m}
  34.76244, 9.1927683048, 2.7432;         !- X,Y,Z Vertex 4 {m}

OS:Surface,
  {171ade18-3605-4df9-b362-7e7df04325cd}, !- Handle
  E2 South Wall (G.W1.I1)-mirror,         !- Name
  Wall,                                   !- Surface Type
  ,                                       !- Construction Name
  {500fa221-4ce4-47ee-8471-33ca5e885672}, !- Space Name
  Surface,                                !- Outside Boundary Condition
  {8740f84f-1c6a-4226-97f1-c4101544dc86}, !- Outside Boundary Condition Object
  NoSun,                                  !- Sun Exposure
  NoWind,                                 !- Wind Exposure
  ,                                       !- View Factor to Ground
  ,                                       !- Number of Vertices
  34.76244, 9.1927683048, 2.7432,         !- X,Y,Z Vertex 1 {m}
  34.76244, 9.1927683048, 0,              !- X,Y,Z Vertex 2 {m}
  13.59408, 9.1927683048, 0,              !- X,Y,Z Vertex 3 {m}
  13.59408, 9.1927683048, 2.7432;         !- X,Y,Z Vertex 4 {m}

OS:Surface,
  {208f34d1-b011-4a1d-abf7-473e2614ae6c}, !- Handle
  E2 East Wall (G.W1.I2),                 !- Name
  Wall,                                   !- Surface Type