
OS:Version,
  {c565af5f-42b3-4be9-8eb4-5c4f1dd4c3fe}, !- Handle
  2.3.0;                                  !- Version Identifier

OS:BuildingStory,
  {dca22fb1-bdf6-4699-9f08-4c1d5f9a4c53}, !- Handle
  "EL1 Ground Flr",                       !- Name
  ,                                       !- Nominal Z Coordinate {m}
  ,                                       !- Nominal Floor to Floor Height {m}
  ,                                       !- Default Construction Set Name
  ,                                       !- Default Schedule Set Name
  ;                                       !- Group Rendering Name

OS:Space,
  {3b9f0a64-a107-48c9-9c81-cae27b5804a3}, !- Handle
  "EL1 South Perim Spc (G.S1)",           !- Name
  {8a344cd6-33a2-4e4a-a154-27466a78e591}, !- Space Type Name
  ,                                       !- Default Construction Set Name
  ,                                       !- Default Schedule Set Name
  -0,                                     !- Direction of Relative North {deg}
  0,                                      !- X Origin {m}
  0,                                      !- Y Origin {m}
  0,                                      !- Z Origin {m}
  {dca22fb1-bdf6-4699-9f08-4c1d5f9a4c53}, !- Building Story Name
  ;                                       !- Thermal Zone Name

OS:Space,
  {a3c0b5fa-250e-454b-be78-f778b51b89b1}, !- Handle
  "EL1 North Perim Spc (G.N2)",           !- Name
  {321df5cb-26ab-4daf-80a2-93a8df1d727b}, !- Space Type Name
  ,                                       !- Default Construction Set Name
  ,                                       !- Default Schedule Set Name
  -0,                                     !- Direction of Relative North {deg}
  0,                                      !- X Origin {m}
  0,                                      !- Y Origin {m}
  0,                                      !- Z Origin {m}
  {dca22fb1-bdf6-4699-9f08-4c1d5f9a4c53}, !- Building Story Name
  ;                                       !- Thermal Zone Name

OS:Space,
  {f7bd3bd9-0639-47c8-b8fd-f9706aca8383}, !- Handle
  "EL1 East Perim Spc (G.E3)",            !- Name
  {321df5cb-26ab-4daf-80a2-93a8df1d727b}, !- Space Type Name
  ,                                       !- Default Construction Set Name
  ,                                       !- Default Schedule Set Name
  -0,                                     !- Direction of Relative North {deg}
  0,                                      !- X Origin {m}
  0,                                      !- Y Origin {m}
  0,                                      !- Z Origin {m}
  {dca22fb1-bdf6-4699-9f08-4c1d5f9a4c53}, !- Building Story Name
  ;                                       !- Thermal Zone Name

OS:Space,
  {9b36b951-e66c-46a8-9c4a-6a11d8adc320}, !- Handle
  "EL1 East Perim Spc (G.E4)",            !- Name
  {9a370dbb-178e-4734-9f42-09562979e72b}, !- Space Type Name
  ,                                       !- Default Construction Set Name
  ,                                       !- Default Schedule Set Name
  -0,                                     !- Direction of Relative North {deg}
  0,                                      !- X Origin {m}
  0,                                      !- Y Origin {m}
  0,                                      !- Z Origin {m}
  {dca22fb1-bdf6-4699-9f08-4c1d5f9a4c53}, !- Building Story Name
  ;                                       !- Thermal Zone Name

OS:Space,
  {04e7614e-8fd6-4a0a-b207-c3aa21833589}, !- Handle
  "EL1 West Perim Spc (G.W5)",            !- Name
  {9b43a61b-7bf9-4dc6-860e-5c8dcd5ad7c4}, !- Space Type Name
  ,                                       !- Default Construction Set Name
  ,                                       !- Default Schedule Set Name
  -0,                                     !- Direction of Relative North {deg}
  0,                                      !- X Origin {m}
  0,                                      !- Y Origin {m}
  0,                                      !- Z Origin {m}
  {dca22fb1-bdf6-4699-9f08-4c1d5f9a4c53}, !- Building Story Name
  ;                                       !- Thermal Zone Name

OS:Space,
  {b48590f5-1fe2-43d6-95a9-b12258560c15}, !- Handle
  "EL1 West Perim Spc (G.W6)",            !- Name
  {ed250944-b7bf-4150-9635-a53bd0b94ac9}, !- Space Type Name
  ,                                       !- Default Construction Set Name
  ,                                       !- Default Schedule Set Name
  -0,                                     !- Direction of Relative North {deg}
  0,                                      !- X Origin {m}
  0,                                      !- Y Origin {m}
  0,                                      !- Z Origin {m}
  {dca22fb1-bdf6-4699-9f08-4c1d5f9a4c53}, !- Building Story Name
  ;                                       !- Thermal Zone Name

OS:Space,
  {03ef3c05-650c-4f4c-8d64-8cbbea819fb4}, !- Handle
  "EL1 WSW Perim Spc (G.WSW7)",           !- Name
  {8a344cd6-33a2-4e4a-a154-27466a78e591}, !- Space Type Name
  ,                                       !- Default Construction Set Name
  ,                                       !- Default Schedule Set Name
  -0,                                     !- Direction of Relative North {deg}
  0,                                      !- X Origin {m}
  0,                                      !- Y Origin {m}
  0,                                      !- Z Origin {m}
  {dca22fb1-bdf6-4699-9f08-4c1d5f9a4c53}, !- Building Story Name
  ;                                       !- Thermal Zone Name

OS:Space,
  {62c6264a-b81f-4203-ae28-938067028727}, !- Handle
  "EL1 Core Spc (G.C8)",                  !- Name
  {8a344cd6-33a2-4e4a-a154-27466a78e591}, !- Space Type Name
  ,                                       !- Default Construction Set Name
  ,                                       !- Default Schedule Set Name
  -0,                                     !- Direction of Relative North {deg}
  0,                                      !- X Origin {m}
  0,                                      !- Y Origin {m}
  0,                                      !- Z Origin {m}
  {dca22fb1-bdf6-4699-9f08-4c1d5f9a4c53}, !- Building Story Name
  ;                                       !- Thermal Zone Name

OS:Surface,
  {59a7529f-2437-4176-bbb2-6bb37f5e493d}, !- Handle
  "EL1 East Wall (G.S1.E1)",              !- Name
  Wall,                                   !- Surface Type
  ,                                       !- Construction Name
  {3b9f0a64-a107-48c9-9c81-cae27b5804a3}, !- Space Name
  Outdoors,                               !- Outside Boundary Condition
  ,                                       !- Outside Boundary Condition Object
  SunExposed,                             !- Sun Exposure
  WindExposed,                            !- Wind Exposure
  ,                                       !- View Factor to Ground
  ,                                       !- Number of Vertices
  110.109, 0, 0,                          !- X,Y,Z Vertex 1 {m}
  110.109, 10.24128, 0,                   !- X,Y,Z Vertex 2 {m}
  110.109, 10.24128, 6.2484,              !- X,Y,Z Vertex 3 {m}
  110.109, 0, 6.2484;                     !- X,Y,Z Vertex 4 {m}

OS:SubSurface,
  {cccb4edc-877c-478c-931a-317a8160c581}, !- Handle
  "EL1 East Win (G.S1.E1.W1)",            !- Name
  FixedWindow,                            !- Sub Surface Type
  ,                                       !- Construction Name
  {59a7529f-2437-4176-bbb2-6bb37f5e493d}, !- Surface Name
  ,                                       !- Outside Boundary Condition Object
  ,                                       !- View Factor to Ground
  ,                                       !- Shading Control Name
  ,                                       !- Frame and Divider Name
  ,                                       !- Multiplier
  ,                                       !- Number of Vertices
  110.109, 4.61433672, 0.9144,            !- X,Y,Z Vertex 1 {m}
  110.109, 5.626940232, 0.9144,           !- X,Y,Z Vertex 2 {m}
  110.109, 5.626940232, 2.810256,         !- X,Y,Z Vertex 3 {m}
  110.109, 4.61433672, 2.810256;          !- X,Y,Z Vertex 4 {m}

OS:Surface,
  {35cfe834-135f-4408-ac29-450ba4ea7645}, !- Handle
  "EL1 South Wall (G.S1.E2)",             !- Name
  Wall,                                   !- Surface Type
  ,                                       !- Construction Name
  {3b9f0a64-a107-48c9-9c81-cae27b5804a3}, !- Space Name
  Outdoors,                               !- Outside Boundary Condition
  ,                                       !- Outside Boundary Condition Object
  SunExposed,                             !- Sun Exposure
  WindExposed,                            !- Wind Exposure
  ,                                       !- View Factor to Ground
  ,                                       !- Number of Vertices
  7.598664, 3.13847387154798e-14, 0,      !- X,Y,Z Vertex 1 {m}
  110.109, 0, 0,                          !- X,Y,Z Vertex 2 {m}
  110.109, 0, 6.2484,                     !- X,Y,Z Vertex 3 {m}
  7.598664, 3.13847387154798e-14, 6.2484; !- X,Y,Z Vertex 4 {m}

OS:SubSurface,
  {82a4002c-7021-4bc7-b1b6-888038c60b4d}, !- Handle
  "EL1 South Win (G.S1.E2.W1)",           !- Name
  FixedWindow,                            !- Sub Surface Type
  ,                                       !- Construction Name
  {35cfe834-135f-4408-ac29-450ba4ea7645}, !- Surface Name
  ,                                       !- Outside Boundary Condition Object
  ,                                       !- View Factor to Ground
  ,                                       !- Shading Control Name
  ,                                       !- Frame and Divider Name
  ,                                       !- Multiplier
  ,                                       !- Number of Vertices
  53.7859224, 8.81549830275613e-15, 0.9144, !- X,Y,Z Vertex 1 {m}
  63.9215892, 3.8504535412185e-15, 0.9144, !- X,Y,Z Vertex 2 {m}
  63.9215892, 3.9665412403207e-15, 2.810256, !- X,Y,Z Vertex 3 {m}
  53.7859224, 8.93158600185834e-15, 2.810256; !- X,Y,Z Vertex 4 {m}

OS:Surface,
  {1e77cc2e-3926-4566-a098-5700ba8f5a26}, !- Handle
  "EL1 Roof (G.S1.E3)",                   !- Name
  RoofCeiling,                            !- Surface Type
  ,                                       !- Construction Name
  {3b9f0a64-a107-48c9-9c81-cae27b5804a3}, !- Space Name
  Outdoors,                               !- Outside Boundary Condition
  ,                                       !- Outside Boundary Condition Object
  SunExposed,                             !- Sun Exposure
  WindExposed,                            !- Wind Exposure
  ,                                       !- View Factor to Ground
  ,                                       !- Number of Vertices
  110.109, 0, 6.2484,                     !- X,Y,Z Vertex 1 {m}
  110.109, 10.24128, 6.2484,              !- X,Y,Z Vertex 2 {m}
  102.510336, 10.24128, 6.2484,           !- X,Y,Z Vertex 3 {m}
  102.510336, 7.598664, 6.2484,           !- X,Y,Z Vertex 4 {m}
  7.598664, 7.59866400000003, 6.2484,     !- X,Y,Z Vertex 5 {m}
  7.598664, 3.13847387154798e-14, 6.2484; !- X,Y,Z Vertex 6 {m}

OS:Surface,
  {d7412779-57be-4f2c-bbcb-beee2068c339}, !- Handle
  "EL1 North Wall (G.S1.I1)",             !- Name
  Wall,                                   !- Surface Type
  ,                                       !- Construction Name
  {3b9f0a64-a107-48c9-9c81-cae27b5804a3}, !- Space Name
  Surface,                                !- Outside Boundary Condition
  {3ad04132-11a2-4b5a-9bc0-0004869662bb}, !- Outside Boundary Condition Object
  NoSun,                                  !- Sun Exposure
  NoWind,                                 !- Wind Exposure
  ,                                       !- View Factor to Ground
  ,                                       !- Number of Vertices
  110.109, 10.24128, 0,                   !- X,Y,Z Vertex 1 {m}
  102.510336, 10.24128, 0,                !- X,Y,Z Vertex 2 {m}
  102.510336, 10.24128, 6.2484,           !- X,Y,Z Vertex 3 {m}
  110.109, 10.24128, 6.2484;              !- X,Y,Z Vertex 4 {m}

OS:Surface,
  {3ad04132-11a2-4b5a-9bc0-0004869662bb}, !- Handle
  "EL1 North Wall (G.S1.I1)"-mirror,      !- Name
  Wall,                                   !- Surface Type
  ,                                       !- Construction Name
  {9b36b951-e66c-46a8-9c4a-6a11d8adc320}, !- Space Name
  Surface,                                !- Outside Boundary Condition
  {d7412779-57be-4f2c-bbcb-beee2068c339}, !- Outside Boundary Condition Object
  NoSun,                                  !- Sun Exposure
  NoWind,                                 !- Wind Exposure
  ,                                       !- View Factor to Ground
  ,                                       !- Number of Vertices
  102.510336, 10.24128, 6.2484,           !- X,Y,Z Vertex 1 {m}
  102.510336, 10.24128, 0,                !- X,Y,Z Vertex 2 {m}
  110.109, 10.24128, 0,                   !- X,Y,Z Vertex 3 {m}
  110.109, 10.24128, 6.2484;              !- X,Y,Z Vertex 4 {m}

OS:Surface,
  {a3562eb5-15fe-4dfa-8bc9-8ec34a9587e4}, !- Handle
  "EL1 West Wall (G.S1.I2)",              !- Name
  Wall,                                   !- Surface Type
  ,                                       !- Construction Name
  {3b9f0a64-a107-48c9-9c81-cae27b5804a3}, !- Space Name
  Surface,                                !- Outside Boundary Condition
  {fb73eaba-67d6-4992-b5dd-36f2d2cde1e3}, !- Outside Boundary Condition Object
  NoSun,                                  !- Sun Exposure
  NoWind,                                 !- Wind Exposure
  ,                                       !- View Factor to Ground
  ,                                       !- Number of Vertices
  102.510336, 10.24128, 0,                !- X,Y,Z Vertex 1 {m}
  102.510336, 7.598664, 0,                !- X,Y,Z Vertex 2 {m}
  102.510336, 7.598664, 6.2484,           !- X,Y,Z Vertex 3 {m}
  102.510336, 10.24128, 6.2484;           !- X,Y,Z Vertex 4 {m}

OS:Surface,
  {fb73eaba-67d6-4992-b5dd-36f2d2cde1e3}, !- Handle
  "EL1 West Wall (G.S1.I2)"-mirror,       !- Name
  Wall,                                   !- Surface Type
  ,                                       !- Construction Name
  {62c6264a-b81f-4203-ae28-938067028727}, !- Space Name
  Surface,                                !- Outside Boundary Condition
  {a3562eb5-15fe-4dfa-8bc9-8ec34a9587e4}, !- Outside Boundary Condition Object
  NoSun,                                  !- Sun Exposure
  NoWind,                                 !- Wind Exposure
  ,                                       !- View Factor to Ground
  ,                                       !- Number of Vertices
  102.510336, 7.598664, 6.2484,           !- X,Y,Z Vertex 1 {m}
  102.510336, 7.598664, 0,                !- X,Y,Z Vertex 2 {m}
  102.510336, 10.24128, 0,                !- X,Y,Z Vertex 3 {m}
  102.510336, 10.24128, 6.2484;           !- X,Y,Z Vertex 4 {m}

OS:Surface,
  {fa74a12f-9ef3-4c04-923c-a49ca9f7f26d}, !- Handle
  "EL1 West Wall (G.S1.I3)",              !- Name
  Wall,                                   !- Surface Type
  ,                                       !- Construction Name
  {3b9f0a64-a107-48c9-9c81-cae27b5804a3}, !- Space Name
  Surface,                                !- Outside Boundary Condition
  {4e026f75-60ce-476f-b7f2-0a321f469377}, !- Outside Boundary Condition Object
  NoSun,                                  !- Sun Exposure
  NoWind,                                 !- Wind Exposure
  ,                                       !- View Factor to Ground
  ,                                       !- Number of Vertices
  7.598664, 7.59866400000003, 0,          !- X,Y,Z Vertex 1 {m}
  7.598664, 3.13847387154798e-14, 0,      !- X,Y,Z Vertex 2 {m}
  7.598664, 3.13847387154798e-14, 6.2484, !- X,Y,Z Vertex 3 {m}
  7.598664, 7.59866400000003, 6.2484;     !- X,Y,Z Vertex 4 {m}

OS:Surface,
  {4e026f75-60ce-476f-b7f2-0a321f469377}, !- Handle
  "EL1 West Wall (G.S1.I3)"-mirror,       !- Name
  Wall,                                   !- Surface Type
  ,                                       !- Construction Name
  {03ef3c05-650c-4f4c-8d64-8cbbea819fb4}, !- Space Name
  Surface,                                !- Outside Boundary Condition
  {fa74a12f-9ef3-4c04-923c-a49ca9f7f26d}, !- Outside Boundary Condition Object
  NoSun,                                  !- Sun Exposure
  NoWind,                                 !- Wind Exposure
  ,                                       !- View Factor to Ground
  ,                                       !- Number of Vertices
  7.598664, 3.13847387154798e-14, 6.2484, !- X,Y,Z Vertex 1 {m}
  7.598664, 3.13847387154798e-14, 0,      !- X,Y,Z Vertex 2 {m}
  7.598664, 7.59866400000003, 0,          !- X,Y,Z Vertex 3 {m}
  7.598664, 7.59866400000003, 6.2484;     !- X,Y,Z Vertex 4 {m}

OS:Surface,
  {c99cb9c2-b3c1-47f8-9493-54f6f0ba9c83}, !- Handle
  "EL1 Flr (G.S1.U1)",                    !- Name
  Floor,                                  !- Surface Type
  ,                                       !- Construction Name
  {3b9f0a64-a107-48c9-9c81-cae27b5804a3}, !- Space Name
  Ground,                                 !- Outside Boundary Condition
  ,                                       !- Outside Boundary Condition Object
  NoSun,                                  !- Sun Exposure
  NoWind,                                 !- Wind Exposure
  ,                                       !- View Factor to Ground
  ,                                       !- Number of Vertices
  7.598664, 7.59866400000003, 0,          !- X,Y,Z Vertex 1 {m}
  102.510336, 7.598664, 0,                !- X,Y,Z Vertex 2 {m}
  102.510336, 10.24128, 0,                !- X,Y,Z Vertex 3 {m}
  110.109, 10.24128, 0,                   !- X,Y,Z Vertex 4 {m}
  110.109, 0, 0,                          !- X,Y,Z Vertex 5 {m}
  7.598664, 3.13847387154798e-14, 0;      !- X,Y,Z Vertex 6 {m}

OS:Surface,
  {b3dfa168-284e-4359-8b3d-7980594b3796}, !- Handle
  "EL1 North Wall (G.N2.E4)",             !- Name
  Wall,                                   !- Surface Type
  ,                                       !- Construction Name
  {a3c0b5fa-250e-454b-be78-f778b51b89b1}, !- Space Name
  Outdoors,                               !- Outside Boundary Condition
  ,                                       !- Outside Boundary Condition Object
  SunExposed,                             !- Sun Exposure
  WindExposed,                            !- Wind Exposure
  ,                                       !- View Factor to Ground
  ,                                       !- Number of Vertices
  110.109, 110.109, 0,                    !- X,Y,Z Vertex 1 {m}
  0, 110.109, 0,                          !- X,Y,Z Vertex 2 {m}
  0, 110.109, 6.2484,                     !- X,Y,Z Vertex 3 {m}
  110.109, 110.109, 6.2484;               !- X,Y,Z Vertex 4 {m}

OS:SubSurface,
  {f8a358bf-10b7-4aa1-b629-344a39c21216}, !- Handle
  "EL1 North Win (G.N2.E4.W1)",           !- Name
  FixedWindow,                            !- Sub Surface Type
  ,                                       !- Construction Name
  {b3dfa168-284e-4359-8b3d-7980594b3796}, !- Surface Name
  ,                                       !- Outside Boundary Condition Object
  ,                                       !- View Factor to Ground
  ,                                       !- Shading Control Name
  ,                                       !- Frame and Divider Name
  ,                                       !- Multiplier
  ,                                       !- Number of Vertices
  60.4979232, 110.109, 0.9144,            !- X,Y,Z Vertex 1 {m}
  49.61095488, 110.109, 0.9144,           !- X,Y,Z Vertex 2 {m}
  49.61095488, 110.109, 2.81025600000001, !- X,Y,Z Vertex 3 {m}
  60.4979232, 110.109, 2.81025600000001;  !- X,Y,Z Vertex 4 {m}

OS:Surface,
  {8c2c48ec-6de3-4778-8ed7-ca46e0833d17}, !- Handle
  "EL1 West Wall (G.N2.E5)",              !- Name
  Wall,                                   !- Surface Type
  ,                                       !- Construction Name
  {a3c0b5fa-250e-454b-be78-f778b51b89b1}, !- Space Name
  Outdoors,                               !- Outside Boundary Condition
  ,                                       !- Outside Boundary Condition Object
  SunExposed,                             !- Sun Exposure
  WindExposed,                            !- Wind Exposure
  ,                                       !- View Factor to Ground
  ,                                       !- Number of Vertices
  0, 110.109, 0,                          !- X,Y,Z Vertex 1 {m}
  0, 102.510336, 0,                       !- X,Y,Z Vertex 2 {m}
  0, 102.510336, 6.2484,                  !- X,Y,Z Vertex 3 {m}
  0, 110.109, 6.2484;                     !- X,Y,Z Vertex 4 {m}

OS:SubSurface,
  {318a7fb3-f934-4612-a915-3bd62e50ac86}, !- Handle
  "EL1 West Win (G.N2.E5.W1)",            !- Name
  FixedWindow,                            !- Sub Surface Type
  ,                                       !- Construction Name
  {8c2c48ec-6de3-4778-8ed7-ca46e0833d17}, !- Surface Name
  ,                                       !- Outside Boundary Condition Object
  ,                                       !- View Factor to Ground
  ,                                       !- Shading Control Name
  ,                                       !- Frame and Divider Name
  ,                                       !- Multiplier
  ,                                       !- Number of Vertices
  5.33074900913543e-15, 106.685334, 0.9144, !- X,Y,Z Vertex 1 {m}
  5.00871613274072e-15, 105.934020288, 0.9144, !- X,Y,Z Vertex 2 {m}
  5.12480383184296e-15, 105.934020288, 2.81025600000001, !- X,Y,Z Vertex 3 {m}
  5.44683670823767e-15, 106.685334, 2.81025600000001; !- X,Y,Z Vertex 4 {m}

OS:Surface,
  {d27392b9-6203-4c61-b79d-d214977b0f81}, !- Handle
  "EL1 East Wall (G.N2.E6)",              !- Name
  Wall,                                   !- Surface Type
  ,                                       !- Construction Name
  {a3c0b5fa-250e-454b-be78-f778b51b89b1}, !- Space Name
  Outdoors,                               !- Outside Boundary Condition
  ,                                       !- Outside Boundary Condition Object
  SunExposed,                             !- Sun Exposure
  WindExposed,                            !- Wind Exposure
  ,                                       !- View Factor to Ground
  ,                                       !- Number of Vertices
  110.109, 102.510336, 0,                 !- X,Y,Z Vertex 1 {m}
  110.109, 110.109, 0,                    !- X,Y,Z Vertex 2 {m}
  110.109, 110.109, 6.2484,               !- X,Y,Z Vertex 3 {m}
  110.109, 102.510336, 6.2484;            !- X,Y,Z Vertex 4 {m}

OS:SubSurface,
  {3b67251a-b3f7-4be8-99dd-29aaa67bc3f1}, !- Handle
  "EL1 East Win (G.N2.E6.W1)",            !- Name
  FixedWindow,                            !- Sub Surface Type
  ,                                       !- Construction Name
  {d27392b9-6203-4c61-b79d-d214977b0f81}, !- Surface Name
  ,                                       !- Outside Boundary Condition Object
  ,                                       !- View Factor to Ground
  ,                                       !- Shading Control Name
  ,                                       !- Frame and Divider Name
  ,                                       !- Multiplier
  ,                                       !- Number of Vertices
  110.109, 105.934002, 0.9144,            !- X,Y,Z Vertex 1 {m}
  110.109, 106.685315712, 0.9144,         !- X,Y,Z Vertex 2 {m}
  110.109, 106.685315712, 2.81025600000001, !- X,Y,Z Vertex 3 {m}
  110.109, 105.934002, 2.81025600000001;  !- X,Y,Z Vertex 4 {m}

OS:Surface,
  {f58fdd84-32a0-45ec-91a2-a43d6b3bc60f}, !- Handle
  "EL1 Roof (G.N2.E7)",                   !- Name
  RoofCeiling,                            !- Surface Type
  ,                                       !- Construction Name
  {a3c0b5fa-250e-454b-be78-f778b51b89b1}, !- Space Name
  Outdoors,                               !- Outside Boundary Condition
  ,                                       !- Outside Boundary Condition Object
  SunExposed,                             !- Sun Exposure
  WindExposed,                            !- Wind Exposure
  ,                                       !- View Factor to Ground
  ,                                       !- Number of Vertices
  110.109, 110.109, 6.2484,               !- X,Y,Z Vertex 1 {m}
  0, 110.109, 6.2484,                     !- X,Y,Z Vertex 2 {m}
  0, 102.510336, 6.2484,                  !- X,Y,Z Vertex 3 {m}
  110.109, 102.510336, 6.2484;            !- X,Y,Z Vertex 4 {m}

OS:Surface,
  {76578138-76f3-410a-9127-234e3f69320e}, !- Handle
  "EL1 Flr (G.N2.U2)",                    !- Name
  Floor,                                  !- Surface Type
  ,                                       !- Construction Name
  {a3c0b5fa-250e-454b-be78-f778b51b89b1}, !- Space Name
  Ground,                                 !- Outside Boundary Condition
  ,                                       !- Outside Boundary Condition Object
  NoSun,                                  !- Sun Exposure
  NoWind,                                 !- Wind Exposure
  ,                                       !- View Factor to Ground
  ,                                       !- Number of Vertices
  0, 102.510336, 0,                       !- X,Y,Z Vertex 1 {m}
  0, 110.109, 0,                          !- X,Y,Z Vertex 2 {m}
  110.109, 110.109, 0,                    !- X,Y,Z Vertex 3 {m}
  110.109, 102.510336, 0;                 !- X,Y,Z Vertex 4 {m}

OS:Surface,
  {f6e4fb3c-d25d-4318-aa51-11a28599fe19}, !- Handle
  "EL1 East Wall (G.E3.E8)",              !- Name
  Wall,                                   !- Surface Type
  ,                                       !- Construction Name
  {f7bd3bd9-0639-47c8-b8fd-f9706aca8383}, !- Space Name
  Outdoors,                               !- Outside Boundary Condition
  ,                                       !- Outside Boundary Condition Object
  SunExposed,                             !- Sun Exposure
  WindExposed,                            !- Wind Exposure
  ,                                       !- View Factor to Ground
  ,                                       !- Number of Vertices
  110.109, 67.49796, 0,                   !- X,Y,Z Vertex 1 {m}
  110.109, 102.510336, 0,                 !- X,Y,Z Vertex 2 {m}
  110.109, 102.510336, 6.2484,            !- X,Y,Z Vertex 3 {m}
  110.109, 67.49796, 6.2484;              !- X,Y,Z Vertex 4 {m}

OS:SubSurface,
  {f84ffe8d-e93b-424d-8f52-a8b2162a1429}, !- Handle
  "EL1 East Win (G.E3.E8.W1)",            !- Name
  FixedWindow,                            !- Sub Surface Type
  ,                                       !- Construction Name
  {f6e4fb3c-d25d-4318-aa51-11a28599fe19}, !- Surface Name
  ,                                       !- Outside Boundary Condition Object
  ,                                       !- View Factor to Ground
  ,                                       !- Shading Control Name
  ,                                       !- Frame and Divider Name
  ,                                       !- Multiplier
  ,                                       !- Number of Vertices
  110.109, 83.27321928, 0.9144,           !- X,Y,Z Vertex 1 {m}
  110.109, 86.73504624, 0.9144,           !- X,Y,Z Vertex 2 {m}
  110.109, 86.73504624, 2.810256,         !- X,Y,Z Vertex 3 {m}
  110.109, 83.27321928, 2.810256;         !- X,Y,Z Vertex 4 {m}

OS:Surface,
  {223ee1b6-2392-4a6e-94d8-35fd07f5e86a}, !- Handle
  "EL1 Roof (G.E3.E9)",                   !- Name
  RoofCeiling,                            !- Surface Type
  ,                                       !- Construction Name
  {f7bd3bd9-0639-47c8-b8fd-f9706aca8383}, !- Space Name
  Outdoors,                               !- Outside Boundary Condition
  ,                                       !- Outside Boundary Condition Object
  SunExposed,                             !- Sun Exposure
  WindExposed,                            !- Wind Exposure
  ,                                       !- View Factor to Ground
  ,                                       !- Number of Vertices
  110.109, 67.49796, 6.2484,              !- X,Y,Z Vertex 1 {m}
  110.109, 102.510336, 6.2484,            !- X,Y,Z Vertex 2 {m}
  102.510336, 102.510336, 6.2484,         !- X,Y,Z Vertex 3 {m}
  102.510336, 67.49796, 6.2484;           !- X,Y,Z Vertex 4 {m}

OS:Surface,
  {345e6c75-71d4-4f04-a7f0-fb0bedf98c37}, !- Handle
  "EL1 North Wall (G.E3.I4)",             !- Name
  Wall,                                   !- Surface Type
  ,                                       !- Construction Name
  {f7bd3bd9-0639-47c8-b8fd-f9706aca8383}, !- Space Name
  Surface,                                !- Outside Boundary Condition
  {522cc812-edfc-4f8d-801f-69c256410c48}, !- Outside Boundary Condition Object
  NoSun,                                  !- Sun Exposure
  NoWind,                                 !- Wind Exposure
  ,                                       !- View Factor to Ground
  ,                                       !- Number of Vertices
  110.109, 102.510336, 0,                 !- X,Y,Z Vertex 1 {m}
  102.510336, 102.510336, 0,              !- X,Y,Z Vertex 2 {m}
  102.510336, 102.510336, 6.2484,         !- X,Y,Z Vertex 3 {m}
  110.109, 102.510336, 6.2484;            !- X,Y,Z Vertex 4 {m}

OS:Surface,
  {522cc812-edfc-4f8d-801f-69c256410c48}, !- Handle
  "EL1 North Wall (G.E3.I4)"-mirror,      !- Name
  Wall,                                   !- Surface Type
  ,                                       !- Construction Name
  {a3c0b5fa-250e-454b-be78-f778b51b89b1}, !- Space Name
  Surface,                                !- Outside Boundary Condition
  {345e6c75-71d4-4f04-a7f0-fb0bedf98c37}, !- Outside Boundary Condition Object
  NoSun,                                  !- Sun Exposure
  NoWind,                                 !- Wind Exposure
  ,                                       !- View Factor to Ground
  ,                                       !- Number of Vertices