
OS:Version,
  {38fa2894-2612-44c5-9033-3cd784a76a1a}, !- Handle
  2.6.0;                                  !- Version Identifier

OS:BuildingStory,
  {46888037-0eeb-45e1-996e-2afd2eabe3bd}, !- Handle
  EL1 Ground Flr,                         !- Name
  ,                                       !- Nominal Z Coordinate {m}
  ,                                       !- Nominal Floor to Floor Height {m}
  ,                                       !- Default Construction Set Name
  ,                                       !- Default Schedule Set Name
  ;                                       !- Group Rendering Name

OS:BuildingStory,
  {89a19fc5-7db4-486b-899f-7df59e2cf272}, !- Handle
  EL1 Top Flr,                            !- Name
  ,                                       !- Nominal Z Coordinate {m}
  ,                                       !- Nominal Floor to Floor Height {m}
  ,                                       !- Default Construction Set Name
  ,                                       !- Default Schedule Set Name
  ;                                       !- Group Rendering Name

OS:Space,
  {b38d781d-e78d-45b5-bf9c-61ccf246f842}, !- Handle
  EL1 SSE Perim Spc (G.SSE1),             !- Name
  {21357796-90d9-4a63-968f-227f49d998a0}, !- Space Type Name
  ,                                       !- Default Construction Set Name
  ,                                       !- Default Schedule Set Name
  -0,                                     !- Direction of Relative North {deg}
  0,                                      !- X Origin {m}
  0,                                      !- Y Origin {m}
  0,                                      !- Z Origin {m}
  {46888037-0eeb-45e1-996e-2afd2eabe3bd}, !- Building Story Name
  {b8891d1c-724e-44b1-8534-33921f15ad0b}; !- Thermal Zone Name

OS:Space,
  {e46255bf-34d3-4e04-a3a3-a5341953f5f3}, !- Handle
  EL1 East Perim Spc (G.E2),              !- Name
  {21357796-90d9-4a63-968f-227f49d998a0}, !- Space Type Name
  ,                                       !- Default Construction Set Name
  ,                                       !- Default Schedule Set Name
  -0,                                     !- Direction of Relative North {deg}
  0,                                      !- X Origin {m}
  0,                                      !- Y Origin {m}
  0,                                      !- Z Origin {m}
  {46888037-0eeb-45e1-996e-2afd2eabe3bd}, !- Building Story Name
  {63e55eaf-14e8-448b-a6b2-1f9d0dddf0e2}; !- Thermal Zone Name

OS:Space,
  {67ff3960-7fab-4eff-a2eb-7d1576862c4c}, !- Handle
  EL1 East Perim Spc (G.E3),              !- Name
  {1a9aa0ec-bc33-49ff-87d1-67b6f2705b3f}, !- Space Type Name
  ,                                       !- Default Construction Set Name
  ,                                       !- Default Schedule Set Name
  -0,                                     !- Direction of Relative North {deg}
  0,                                      !- X Origin {m}
  0,                                      !- Y Origin {m}
  0,                                      !- Z Origin {m}
  {46888037-0eeb-45e1-996e-2afd2eabe3bd}, !- Building Story Name
  {1681114c-4ac2-469c-963f-2e2fb85331fd}; !- Thermal Zone Name

OS:Space,
  {531cf30e-d734-4ece-93c4-a9198a550f92}, !- Handle
  EL1 East Perim Spc (G.E4),              !- Name
  {21357796-90d9-4a63-968f-227f49d998a0}, !- Space Type Name
  ,                                       !- Default Construction Set Name
  ,                                       !- Default Schedule Set Name
  -0,                                     !- Direction of Relative North {deg}
  0,                                      !- X Origin {m}
  0,                                      !- Y Origin {m}
  0,                                      !- Z Origin {m}
  {46888037-0eeb-45e1-996e-2afd2eabe3bd}, !- Building Story Name
  {9d77ec11-18c1-49c7-b809-410a3d449a26}; !- Thermal Zone Name

OS:Space,
  {7de29e8a-fd3d-4813-8593-745ae806e4c8}, !- Handle
  EL1 East Perim Spc (G.E5),              !- Name
  {1a9aa0ec-bc33-49ff-87d1-67b6f2705b3f}, !- Space Type Name
  ,                                       !- Default Construction Set Name
  ,                                       !- Default Schedule Set Name
  -0,                                     !- Direction of Relative North {deg}
  0,                                      !- X Origin {m}
  0,                                      !- Y Origin {m}
  0,                                      !- Z Origin {m}
  {46888037-0eeb-45e1-996e-2afd2eabe3bd}, !- Building Story Name
  {3088aacb-6d99-4290-bc67-90418b647092}; !- Thermal Zone Name

OS:Space,
  {6e6accb2-e118-40d7-9eab-7391b540e101}, !- Handle
  EL1 NNE Perim Spc (G.NNE6),             !- Name
  {21357796-90d9-4a63-968f-227f49d998a0}, !- Space Type Name
  ,                                       !- Default Construction Set Name
  ,                                       !- Default Schedule Set Name
  -0,                                     !- Direction of Relative North {deg}
  0,                                      !- X Origin {m}
  0,                                      !- Y Origin {m}
  0,                                      !- Z Origin {m}
  {46888037-0eeb-45e1-996e-2afd2eabe3bd}, !- Building Story Name
  {07d42f3e-4636-48c2-8c46-5f3b57be876c}; !- Thermal Zone Name

OS:Space,
  {4bd8a35e-77ec-44be-89f9-0113174005f2}, !- Handle
  EL1 SSW Perim Spc (G.SSW7),             !- Name
  {1a9aa0ec-bc33-49ff-87d1-67b6f2705b3f}, !- Space Type Name
  ,                                       !- Default Construction Set Name
  ,                                       !- Default Schedule Set Name
  -0,                                     !- Direction of Relative North {deg}
  0,                                      !- X Origin {m}
  0,                                      !- Y Origin {m}
  0,                                      !- Z Origin {m}
  {46888037-0eeb-45e1-996e-2afd2eabe3bd}, !- Building Story Name
  {ff7ced0a-1b72-430a-bf47-bf6c5cf1e4e1}; !- Thermal Zone Name

OS:Space,
  {193473c5-7b57-46a6-8562-48ca747ae9be}, !- Handle
  EL1 West Perim Spc (G.W8),              !- Name
  {21357796-90d9-4a63-968f-227f49d998a0}, !- Space Type Name
  ,                                       !- Default Construction Set Name
  ,                                       !- Default Schedule Set Name
  -0,                                     !- Direction of Relative North {deg}
  0,                                      !- X Origin {m}
  0,                                      !- Y Origin {m}
  0,                                      !- Z Origin {m}
  {46888037-0eeb-45e1-996e-2afd2eabe3bd}, !- Building Story Name
  {19a1953d-7b86-46b2-8153-3432e0442c4e}; !- Thermal Zone Name

OS:Space,
  {a55922da-4a94-42d4-80c5-313de662024c}, !- Handle
  EL1 West Perim Spc (G.W9),              !- Name
  {1a9aa0ec-bc33-49ff-87d1-67b6f2705b3f}, !- Space Type Name
  ,                                       !- Default Construction Set Name
  ,                                       !- Default Schedule Set Name
  -0,                                     !- Direction of Relative North {deg}
  0,                                      !- X Origin {m}
  0,                                      !- Y Origin {m}
  0,                                      !- Z Origin {m}
  {46888037-0eeb-45e1-996e-2afd2eabe3bd}, !- Building Story Name
  {be5de350-4646-4636-a983-d7935b9c7833}; !- Thermal Zone Name

OS:Space,
  {5a1c84d6-2c06-4f98-b0d9-90c75b611778}, !- Handle
  EL1 West Perim Spc (G.W10),             !- Name
  {21357796-90d9-4a63-968f-227f49d998a0}, !- Space Type Name
  ,                                       !- Default Construction Set Name
  ,                                       !- Default Schedule Set Name
  -0,                                     !- Direction of Relative North {deg}
  0,                                      !- X Origin {m}
  0,                                      !- Y Origin {m}
  0,                                      !- Z Origin {m}
  {46888037-0eeb-45e1-996e-2afd2eabe3bd}, !- Building Story Name
  {7a7f16df-f77a-4828-825c-f2f138aabffe}; !- Thermal Zone Name

OS:Space,
  {ff3acf97-371c-4655-94c3-f83ca6f59908}, !- Handle
  EL1 West Perim Spc (G.W11),             !- Name
  {1a9aa0ec-bc33-49ff-87d1-67b6f2705b3f}, !- Space Type Name
  ,                                       !- Default Construction Set Name
  ,                                       !- Default Schedule Set Name
  -0,                                     !- Direction of Relative North {deg}
  0,                                      !- X Origin {m}
  0,                                      !- Y Origin {m}
  0,                                      !- Z Origin {m}
  {46888037-0eeb-45e1-996e-2afd2eabe3bd}, !- Building Story Name
  {480f47c6-307f-4521-b020-6de43cbc90f2}; !- Thermal Zone Name

OS:Space,
  {acdd1101-cd18-42f0-a52f-1ddace22f640}, !- Handle
  EL1 NNW Perim Spc (G.NNW12),            !- Name
  {21357796-90d9-4a63-968f-227f49d998a0}, !- Space Type Name
  ,                                       !- Default Construction Set Name
  ,                                       !- Default Schedule Set Name
  -0,                                     !- Direction of Relative North {deg}
  0,                                      !- X Origin {m}
  0,                                      !- Y Origin {m}
  0,                                      !- Z Origin {m}
  {46888037-0eeb-45e1-996e-2afd2eabe3bd}, !- Building Story Name
  {546d18d4-3078-4432-aa12-80307543fb5d}; !- Thermal Zone Name

OS:Space,
  {8c9351f9-be2b-42e7-a6b6-edf23afc6c53}, !- Handle
  EL1 Core Spc (G.C13),                   !- Name
  {57d86ed9-2f68-4670-a5a6-06ce7f7cbec0}, !- Space Type Name
  ,                                       !- Default Construction Set Name
  ,                                       !- Default Schedule Set Name
  -0,                                     !- Direction of Relative North {deg}
  0,                                      !- X Origin {m}
  0,                                      !- Y Origin {m}
  0,                                      !- Z Origin {m}
  {46888037-0eeb-45e1-996e-2afd2eabe3bd}, !- Building Story Name
  {8c208529-bd89-428c-9665-e0caa7d51924}; !- Thermal Zone Name

OS:Space,
  {0cda0758-3233-4b28-9f52-6e974c5af81d}, !- Handle
  EL1 SSE Perim Plnm (G.SSE14),           !- Name
  {9b6f045f-da45-4774-bf25-d3630b838120}, !- Space Type Name
  ,                                       !- Default Construction Set Name
  ,                                       !- Default Schedule Set Name
  -0,                                     !- Direction of Relative North {deg}
  0,                                      !- X Origin {m}
  0,                                      !- Y Origin {m}
  0,                                      !- Z Origin {m}
  {46888037-0eeb-45e1-996e-2afd2eabe3bd}, !- Building Story Name
  {4ca86bc8-077c-4686-b5c0-bea8811c4bca}, !- Thermal Zone Name
  No;                                     !- Part of Total Floor Area

OS:Space,
  {5a886385-108d-426d-b67f-2e118a4ffbfb}, !- Handle
  EL1 East Perim Plnm (G.E15),            !- Name
  {9b6f045f-da45-4774-bf25-d3630b838120}, !- Space Type Name
  ,                                       !- Default Construction Set Name
  ,                                       !- Default Schedule Set Name
  -0,                                     !- Direction of Relative North {deg}
  0,                                      !- X Origin {m}
  0,                                      !- Y Origin {m}
  0,                                      !- Z Origin {m}
  {46888037-0eeb-45e1-996e-2afd2eabe3bd}, !- Building Story Name
  {d4172e35-65d7-49fc-8bd4-2496a23dd369}, !- Thermal Zone Name
  No;                                     !- Part of Total Floor Area

OS:Space,
  {f3ddb71e-58bf-421a-ad8c-1d412ea7ffb3}, !- Handle
  EL1 East Perim Plnm (G.E16),            !- Name
  {9b6f045f-da45-4774-bf25-d3630b838120}, !- Space Type Name
  ,                                       !- Default Construction Set Name
  ,                                       !- Default Schedule Set Name
  -0,                                     !- Direction of Relative North {deg}
  0,                                      !- X Origin {m}
  0,                                      !- Y Origin {m}
  0,                                      !- Z Origin {m}
  {46888037-0eeb-45e1-996e-2afd2eabe3bd}, !- Building Story Name
  {2732ee41-4df2-4234-8a7e-1d6ce37e2b2d}, !- Thermal Zone Name
  No;                                     !- Part of Total Floor Area

OS:Space,
  {70fbbb19-ca0f-4db2-a7a5-1ec8776e5eec}, !- Handle
  EL1 East Perim Plnm (G.E17),            !- Name
  {9b6f045f-da45-4774-bf25-d3630b838120}, !- Space Type Name
  ,                                       !- Default Construction Set Name
  ,                                       !- Default Schedule Set Name
  -0,                                     !- Direction of Relative North {deg}
  0,                                      !- X Origin {m}
  0,                                      !- Y Origin {m}
  0,                                      !- Z Origin {m}
  {46888037-0eeb-45e1-996e-2afd2eabe3bd}, !- Building Story Name
  {765d0805-0a07-4fdd-b8c0-77b34633b973}, !- Thermal Zone Name
  No;                                     !- Part of Total Floor Area

OS:Space,
  {2198a647-467d-4990-a514-ce0e0300761f}, !- Handle
  EL1 East Perim Plnm (G.E18),            !- Name
  {9b6f045f-da45-4774-bf25-d3630b838120}, !- Space Type Name
  ,                                       !- Default Construction Set Name
  ,                                       !- Default Schedule Set Name
  -0,                                     !- Direction of Relative North {deg}
  0,                                      !- X Origin {m}
  0,                                      !- Y Origin {m}
  0,                                      !- Z Origin {m}
  {46888037-0eeb-45e1-996e-2afd2eabe3bd}, !- Building Story Name
  {481836d7-5150-4ce5-b559-c5755d4413a0}, !- Thermal Zone Name
  No;                                     !- Part of Total Floor Area

OS:Space,
  {8b2ba622-ed54-4f5d-9313-af21a287e143}, !- Handle
  EL1 NNE Perim Plnm (G.NNE19),           !- Name
  {9b6f045f-da45-4774-bf25-d3630b838120}, !- Space Type Name
  ,                                       !- Default Construction Set Name
  ,                                       !- Default Schedule Set Name
  -0,                                     !- Direction of Relative North {deg}
  0,                                      !- X Origin {m}
  0,                                      !- Y Origin {m}
  0,                                      !- Z Origin {m}
  {46888037-0eeb-45e1-996e-2afd2eabe3bd}, !- Building Story Name
  {371b42d2-d9ef-44ec-ba9c-ae65e3606aed}, !- Thermal Zone Name
  No;                                     !- Part of Total Floor Area

OS:Space,
  {792b6e6a-7335-4bf8-b1b4-e4720c95b027}, !- Handle
  EL1 SSW Perim Plnm (G.SSW20),           !- Name
  {9b6f045f-da45-4774-bf25-d3630b838120}, !- Space Type Name
  ,                                       !- Default Construction Set Name
  ,                                       !- Default Schedule Set Name
  -0,                                     !- Direction of Relative North {deg}
  0,                                      !- X Origin {m}
  0,                                      !- Y Origin {m}
  0,                                      !- Z Origin {m}
  {46888037-0eeb-45e1-996e-2afd2eabe3bd}, !- Building Story Name
  {eec1799a-b9cc-45d3-bdc1-c3dac075b2a0}, !- Thermal Zone Name
  No;                                     !- Part of Total Floor Area

OS:Space,
  {8615bdef-482f-4ddf-bddb-d09ca479dfc0}, !- Handle
  EL1 West Perim Plnm (G.W21),            !- Name
  {9b6f045f-da45-4774-bf25-d3630b838120}, !- Space Type Name
  ,                                       !- Default Construction Set Name
  ,                                       !- Default Schedule Set Name
  -0,                                     !- Direction of Relative North {deg}
  0,                                      !- X Origin {m}
  0,                                      !- Y Origin {m}
  0,                                      !- Z Origin {m}
  {46888037-0eeb-45e1-996e-2afd2eabe3bd}, !- Building Story Name
  {aa3def86-3f14-4be7-b6d6-0e11bf0f5443}, !- Thermal Zone Name
  No;                                     !- Part of Total Floor Area

OS:Space,
  {598ee88a-e406-4b43-a69f-952f783c4ad2}, !- Handle
  EL1 West Perim Plnm (G.W22),            !- Name
  {9b6f045f-da45-4774-bf25-d3630b838120}, !- Space Type Name
  ,                                       !- Default Construction Set Name
  ,                                       !- Default Schedule Set Name
  -0,                                     !- Direction of Relative North {deg}
  0,                                      !- X Origin {m}
  0,                                      !- Y Origin {m}
  0,                                      !- Z Origin {m}
  {46888037-0eeb-45e1-996e-2afd2eabe3bd}, !- Building Story Name
  {0c5d6dfa-eb74-4ba0-8923-5c66efa6696c}, !- Thermal Zone Name
  No;                                     !- Part of Total Floor Area

OS:Space,
  {f986f47c-7db3-4348-8a0d-879742330ecf}, !- Handle
  EL1 West Perim Plnm (G.W23),            !- Name
  {9b6f045f-da45-4774-bf25-d3630b838120}, !- Space Type Name
  ,                                       !- Default Construction Set Name
  ,                                       !- Default Schedule Set Name
  -0,                                     !- Direction of Relative North {deg}
  0,                                      !- X Origin {m}
  0,                                      !- Y Origin {m}
  0,                                      !- Z Origin {m}
  {46888037-0eeb-45e1-996e-2afd2eabe3bd}, !- Building Story Name
  {3f1d8108-6455-4a7c-a1d7-8b1aa62e5108}, !- Thermal Zone Name
  No;                                     !- Part of Total Floor Area

OS:Space,
  {cfbb5503-3edc-4fc1-997d-bfbaf9e9f75d}, !- Handle
  EL1 West Perim Plnm (G.W24),            !- Name
  {9b6f045f-da45-4774-bf25-d3630b838120}, !- Space Type Name
  ,                                       !- Default Construction Set Name
  ,                                       !- Default Schedule Set Name
  -0,                                     !- Direction of Relative North {deg}
  0,                                      !- X Origin {m}
  0,                                      !- Y Origin {m}
  0,                                      !- Z Origin {m}
  {46888037-0eeb-45e1-996e-2afd2eabe3bd}, !- Building Story Name
  {e3f6cf4a-322e-4ea0-aceb-bc97d73db8b1}, !- Thermal Zone Name
  No;                                     !- Part of Total Floor Area

OS:Space,
  {160c9cdc-edc9-4397-82f3-d4c7ad11c859}, !- Handle
  EL1 NNW Perim Plnm (G.NNW25),           !- Name
  {9b6f045f-da45-4774-bf25-d3630b838120}, !- Space Type Name
  ,                                       !- Default Construction Set Name
  ,                                       !- Default Schedule Set Name
  -0,                                     !- Direction of Relative North {deg}
  0,                                      !- X Origin {m}
  0,                                      !- Y Origin {m}
  0,                                      !- Z Origin {m}
  {46888037-0eeb-45e1-996e-2afd2eabe3bd}, !- Building Story Name
  {81765344-80dc-45b0-9877-a842719c6140}, !- Thermal Zone Name
  No;                                     !- Part of Total Floor Area

OS:Space,
  {50a7bbf0-93dc-4694-a4b5-21ea71eddf71}, !- Handle
  EL1 Core Plnm (G.C26),                  !- Name
  {9b6f045f-da45-4774-bf25-d3630b838120}, !- Space Type Name
  ,                                       !- Default Construction Set Name
  ,                                       !- Default Schedule Set Name
  -0,                                     !- Direction of Relative North {deg}
  0,                                      !- X Origin {m}
  0,                                      !- Y Origin {m}
  0,                                      !- Z Origin {m}
  {46888037-0eeb-45e1-996e-2afd2eabe3bd}, !- Building Story Name
  {7601eb80-8ee4-441f-b44b-e78d0cb89be8}, !- Thermal Zone Name
  No;                                     !- Part of Total Floor Area

OS:Space,
  {a61448eb-1d11-44d5-bbde-09788c961c31}, !- Handle
  EL1 SSE Perim Spc (T.SSE27),            !- Name
  {1a9aa0ec-bc33-49ff-87d1-67b6f2705b3f}, !- Space Type Name
  ,                                       !- Default Construction Set Name
  ,                                       !- Default Schedule Set Name
  -0,                                     !- Direction of Relative North {deg}
  0,                                      !- X Origin {m}
  0,                                      !- Y Origin {m}
  0,                                      !- Z Origin {m}
  {89a19fc5-7db4-486b-899f-7df59e2cf272}, !- Building Story Name
  {441783a8-e9a8-4c90-93c1-9d66c64d1464}; !- Thermal Zone Name

OS:Space,
  {e8b3a5ff-2156-46a8-83bf-a36880115f40}, !- Handle
  EL1 East Perim Spc (T.E28),             !- Name
  {21357796-90d9-4a63-968f-227f49d998a0}, !- Space Type Name
  ,                                       !- Default Construction Set Name
  ,                                       !- Default Schedule Set Name
  -0,                                     !- Direction of Relative North {deg}
  0,                                      !- X Origin {m}
  0,                                      !- Y Origin {m}
  0,                                      !- Z Origin {m}
  {89a19fc5-7db4-486b-899f-7df59e2cf272}, !- Building Story Name
  {a1a860f4-2611-4de3-ba56-965a800dca63}; !- Thermal Zone Name

OS:Space,
  {3ce57d7e-2333-4326-9c22-fc75d1db154f}, !- Handle
  EL1 East Perim Spc (T.E29),             !- Name
  {1a9aa0ec-bc33-49ff-87d1-67b6f2705b3f}, !- Space Type Name
  ,                                       !- Default Construction Set Name
  ,                                       !- Default Schedule Set Name
  -0,                                     !- Direction of Relative North {deg}
  0,                                      !- X Origin {m}
  0,                                      !- Y Origin {m}
  0,                                      !- Z Origin {m}
  {89a19fc5-7db4-486b-899f-7df59e2cf272}, !- Building Story Name
  {d8b5b693-3dc4-48bf-9385-499389f939d7}; !- Thermal Zone Name

OS:Space,
  {783a52cf-11d8-4e9c-8e68-59acc8c7ff28}, !- Handle
  EL1 East Perim Spc (T.E30),             !- Name
  {21357796-90d9-4a63-968f-227f49d998a0}, !- Space Type Name
  ,                                       !- Default Construction Set Name
  ,                                       !- Default Schedule Set Name
  -0,                                     !- Direction of Relative North {deg}
  0,                                      !- X Origin {m}
  0,                                      !- Y Origin {m}
  0,                                      !- Z Origin {m}
  {89a19fc5-7db4-486b-899f-7df59e2cf272}, !- Building Story Name
  {319f1963-64b8-425f-b594-fdcba84076a4}; !- Thermal Zone Name

OS:Space,
  {d648ff6d-86cd-43cb-bf97-1a3b179b27a0}, !- Handle
  EL1 East Perim Spc (T.E31),             !- Name
  {1a9aa0ec-bc33-49ff-87d1-67b6f2705b3f}, !- Space Type Name
  ,                                       !- Default Construction Set Name
  ,                                       !- Default Schedule Set Name
  -0,                                     !- Direction of Relative North {deg}
  0,                                      !- X Origin {m}
  0,                                      !- Y Origin {m}
  0,                                      !- Z Origin {m}
  {89a19fc5-7db4-486b-899f-7df59e2cf272}, !- Building Story Name
  {6629adfd-3fc9-45e1-bf0a-e3a5dac5cb0b}; !- Thermal Zone Name

OS:Space,
  {756bf898-b96d-40ed-b304-59e8066965b9}, !- Handle
  EL1 NNE Perim Spc (T.NNE32),            !- Name
  {21357796-90d9-4a63-968f-227f49d998a0}, !- Space Type Name
  ,                                       !- Default Construction Set Name
  ,                                       !- Default Schedule Set Name
  -0,                                     !- Direction of Relative North {deg}
  0,                                      !- X Origin {m}
  0,                                      !- Y Origin {m}
  0,                                      !- Z Origin {m}
  {89a19fc5-7db4-486b-899f-7df59e2cf272}, !- Building Story Name
  {e88393cd-8cd4-4be8-883c-8e1ca9e1b753}; !- Thermal Zone Name

OS:Space,
  {8fb3235d-51d7-44fa-8761-ef63a8ae21bf}, !- Handle
  EL1 SSW Perim Spc (T.SSW33),            !- Name
  {1a9aa0ec-bc33-49ff-87d1-67b6f2705b3f}, !- Space Type Name
  ,                                       !- Default Construction Set Name
  ,                                       !- Default Schedule Set Name
  -0,                                     !- Direction of Relative North {deg}
  0,                                      !- X Origin {m}
  0,                                      !- Y Origin {m}
  0,                                      !- Z Origin {m}
  {89a19fc5-7db4-486b-899f-7df59e2cf272}, !- Building Story Name
  {0ff17114-2b5b-4b40-b0c7-2f63e7d84bb8}; !- Thermal Zone Name

OS:Space,
  {366b10ea-7578-469b-919b-a8dd794bf105}, !- Handle
  EL1 West Perim Spc (T.W34),             !- Name
  {21357796-90d9-4a63-968f-227f49d998a0}, !- Space Type Name
  ,                                       !- Default Construction Set Name
  ,                                       !- Default Schedule Set Name
  -0,                                     !- Direction of Relative North {deg}
  0,                                      !- X Origin {m}
  0,                                      !- Y Origin {m}
  0,                                      !- Z Origin {m}
  {89a19fc5-7db4-486b-899f-7df59e2cf272}, !- Building Story Name
  {d3379a89-4abd-4829-899c-341a43267e6b}; !- Thermal Zone Name

OS:Space,
  {464d0e17-1969-4b01-8c2c-ef44e57bb7f5}, !- Handle
  EL1 West Perim Spc (T.W35),             !- Name
  {1a9aa0ec-bc33-49ff-87d1-67b6f2705b3f}, !- Space Type Name
  ,                                       !- Default Construction Set Name
  ,                                       !- Default Schedule Set Name
  -0,                                     !- Direction of Relative North {deg}
  0,                                      !- X Origin {m}
  0,                                      !- Y Origin {m}
  0,                                      !- Z Origin {m}
  {89a19fc5-7db4-486b-899f-7df59e2cf272}, !- Building Story Name
  {6fcf3706-618f-435a-971f-10eae052061b}; !- Thermal Zone Name

OS:Space,
  {d63b3cf3-2f38-4d5c-a8cf-37a98d14a3cc}, !- Handle
  EL1 West Perim Spc (T.W36),             !- Name
  {21357796-90d9-4a63-968f-227f49d998a0}, !- Space Type Name
  ,                                       !- Default Construction Set Name
  ,                                       !- Default Schedule Set Name
  -0,                                     !- Direction of Relative North {deg}
  0,                                      !- X Origin {m}
  0,                                      !- Y Origin {m}
  0,                                      !- Z Origin {m}
  {89a19fc5-7db4-486b-899f-7df59e2cf272}, !- Building Story Name
  {effbe9c9-0363-4e40-99b9-2b3d531e52de}; !- Thermal Zone Name

OS:Space,
  {5db8e03c-5fb8-4fe3-90f2-1ed08a8dfed5}, !- Handle
  EL1 West Perim Spc (T.W37),             !- Name
  {1a9aa0ec-bc33-49ff-87d1-67b6f2705b3f}, !- Space Type Name
  ,                                       !- Default Construction Set Name
  ,                                       !- Default Schedule Set Name
  -0,                                     !- Direction of Relative North {deg}
  0,                                      !- X Origin {m}
  0,                                      !- Y Origin {m}
  0,                                      !- Z Origin {m}
  {89a19fc5-7db4-486b-899f-7df59e2cf272}, !- Building Story Name
  {3a58d479-60e1-4549-b51a-9d662874af58}; !- Thermal Zone Name

OS:Space,
  {feb83b74-33b6-4219-914c-8531e92d82db}, !- Handle
  EL1 NNW Perim Spc (T.NNW38),            !- Name
  {21357796-90d9-4a63-968f-227f49d998a0}, !- Space Type Name
  ,                                       !- Default Construction Set Name
  ,                                       !- Default Schedule Set Name
  -0,                                     !- Direction of Relative North {deg}
  0,                                      !- X Origin {m}
  0,                                      !- Y Origin {m}
  0,                                      !- Z Origin {m}
  {89a19fc5-7db4-486b-899f-7df59e2cf272}, !- Building Story Name
  {8690bb5e-3358-4164-935a-074c86a00d12}; !- Thermal Zone Name

OS:Space,
  {2c5f4113-fa77-4ab7-9e45-3dffabdef2b1}, !- Handle
  EL1 Core Spc (T.C39),                   !- Name
  {57d86ed9-2f68-4670-a5a6-06ce7f7cbec0}, !- Space Type Name
  ,                                       !- Default Construction Set Name
  ,                                       !- Default Schedule Set Name
  -0,                                     !- Direction of Relative North {deg}
  0,                                      !- X Origin {m}
  0,                                      !- Y Origin {m}
  0,                                      !- Z Origin {m}
  {89a19fc5-7db4-486b-899f-7df59e2cf272}, !- Building Story Name
  {82649af5-4982-441c-96e0-95f09b825e6f}; !- Thermal Zone Name

OS:Space,
  {91b255a4-755a-46ee-bf0b-cd63490306fb}, !- Handle
  EL1 SSE Perim Attc (T.SSE40),           !- Name
  {9b6f045f-da45-4774-bf25-d3630b838120}, !- Space Type Name
  ,                                       !- Default Construction Set Name
  ,                                       !- Default Schedule Set Name
  -0,                                     !- Direction of Relative North {deg}
  0,                                      !- X Origin {m}
  0,                                      !- Y Origin {m}
  0,                                      !- Z Origin {m}
  {89a19fc5-7db4-486b-899f-7df59e2cf272}, !- Building Story Name