
OS:Version,
  {2d6dc68b-6398-424b-bd22-8bf3030fcbc3}, !- Handle
  2.3.0;                                  !- Version Identifier

OS:BuildingStory,
  {5f6281e4-e9fe-45df-8c28-9ae4c440346b}, !- Handle
  "EL1 Ground Flr",                       !- Name
  ,                                       !- Nominal Z Coordinate {m}
  ,                                       !- Nominal Floor to Floor Height {m}
  ,                                       !- Default Construction Set Name
  ,                                       !- Default Schedule Set Name
  {6c2cee37-eba0-43cc-b4da-785ed8e5df7b}; !- Group Rendering Name

OS:BuildingStory,
  {8ab96fe4-c920-4744-9cc8-d8874d8926be}, !- Handle
  "EL2 Ground Flr",                       !- Name
  ,                                       !- Nominal Z Coordinate {m}
  ,                                       !- Nominal Floor to Floor Height {m}
  ,                                       !- Default Construction Set Name
  ,                                       !- Default Schedule Set Name
  {bf6c3e59-90c1-4b5a-a023-5e13ebbebc3e}; !- Group Rendering Name

OS:BuildingStory,
  {c072c6f1-e6b4-4656-9bca-f2d13eec1cfa}, !- Handle
  "EL3 Ground Flr",                       !- Name
  ,                                       !- Nominal Z Coordinate {m}
  ,                                       !- Nominal Floor to Floor Height {m}
  ,                                       !- Default Construction Set Name
  ,                                       !- Default Schedule Set Name
  {17ab3a4a-cae7-4aef-8404-1d0cd6cab3b3}; !- Group Rendering Name

OS:BuildingStory,
  {7cebb046-1aca-40db-8329-d1c1866f11e0}, !- Handle
  "EL4 Ground Flr",                       !- Name
  ,                                       !- Nominal Z Coordinate {m}
  ,                                       !- Nominal Floor to Floor Height {m}
  ,                                       !- Default Construction Set Name
  ,                                       !- Default Schedule Set Name
  {758d9e87-fa76-4954-bf41-cc1879132083}; !- Group Rendering Name

OS:BuildingStory,
  {b2b5f7dd-87d9-4f44-ad58-16ebed0a323b}, !- Handle
  "EL4 Mid Flrs",                         !- Name
  ,                                       !- Nominal Z Coordinate {m}
  ,                                       !- Nominal Floor to Floor Height {m}
  ,                                       !- Default Construction Set Name
  ,                                       !- Default Schedule Set Name
  {59466615-5e8a-43ae-a343-8a18336c62d2}; !- Group Rendering Name

OS:BuildingStory,
  {322ccbbb-fe74-4e2c-9217-6dfbb612e185}, !- Handle
  "EL4 Top Flr",                          !- Name
  ,                                       !- Nominal Z Coordinate {m}
  ,                                       !- Nominal Floor to Floor Height {m}
  ,                                       !- Default Construction Set Name
  ,                                       !- Default Schedule Set Name
  {6b92908e-af8a-49d8-815e-51dd48e269cb}; !- Group Rendering Name

OS:Space,
  {38d94eb0-9973-4811-8324-db5a1633d9be}, !- Handle
  "EL1 West Perim Spc (G.W1)",            !- Name
  {a7a55c46-7fa1-4f7f-9312-17cbc6a6fbc9}, !- Space Type Name
  ,                                       !- Default Construction Set Name
  ,                                       !- Default Schedule Set Name
  -0,                                     !- Direction of Relative North {deg}
  0,                                      !- X Origin {m}
  0,                                      !- Y Origin {m}
  0,                                      !- Z Origin {m}
  {5f6281e4-e9fe-45df-8c28-9ae4c440346b}, !- Building Story Name
  ;                                       !- Thermal Zone Name

OS:Space,
  {e6a0f5f1-2b05-4d29-9a12-9bb73df8ef3d}, !- Handle
  "EL1 West Perim Spc (G.W2)",            !- Name
  {2edcbc6f-3503-4e8f-a149-2391eb49f7d3}, !- Space Type Name
  ,                                       !- Default Construction Set Name
  ,                                       !- Default Schedule Set Name
  -0,                                     !- Direction of Relative North {deg}
  0,                                      !- X Origin {m}
  0,                                      !- Y Origin {m}
  0,                                      !- Z Origin {m}
  {5f6281e4-e9fe-45df-8c28-9ae4c440346b}, !- Building Story Name
  ;                                       !- Thermal Zone Name

OS:Space,
  {885629ed-5e64-4bef-9889-ccc48fc887e0}, !- Handle
  "EL1 East Perim Spc (G.E3)",            !- Name
  {7cd40050-b4be-4fea-a59e-0b26c9b32814}, !- Space Type Name
  ,                                       !- Default Construction Set Name
  ,                                       !- Default Schedule Set Name
  -0,                                     !- Direction of Relative North {deg}
  0,                                      !- X Origin {m}
  0,                                      !- Y Origin {m}
  0,                                      !- Z Origin {m}
  {5f6281e4-e9fe-45df-8c28-9ae4c440346b}, !- Building Story Name
  ;                                       !- Thermal Zone Name

OS:Space,
  {ad8f6e29-0211-484a-a7ed-5310fb463443}, !- Handle
  "EL1 West Perim Plnm (G.W4)",           !- Name
  ,                                       !- Space Type Name
  ,                                       !- Default Construction Set Name
  ,                                       !- Default Schedule Set Name
  -0,                                     !- Direction of Relative North {deg}
  0,                                      !- X Origin {m}
  0,                                      !- Y Origin {m}
  0,                                      !- Z Origin {m}
  {5f6281e4-e9fe-45df-8c28-9ae4c440346b}, !- Building Story Name
  ;                                       !- Thermal Zone Name

OS:Space,
  {3257e039-6a1d-46e8-bf15-9f742ee310c4}, !- Handle
  "EL1 West Perim Plnm (G.W5)",           !- Name
  ,                                       !- Space Type Name
  ,                                       !- Default Construction Set Name
  ,                                       !- Default Schedule Set Name
  -0,                                     !- Direction of Relative North {deg}
  0,                                      !- X Origin {m}
  0,                                      !- Y Origin {m}
  0,                                      !- Z Origin {m}
  {5f6281e4-e9fe-45df-8c28-9ae4c440346b}, !- Building Story Name
  ;                                       !- Thermal Zone Name

OS:Space,
  {478c502c-633b-4df6-a05e-4fb8d909e3c9}, !- Handle
  "EL1 East Perim Plnm (G.E6)",           !- Name
  ,                                       !- Space Type Name
  ,                                       !- Default Construction Set Name
  ,                                       !- Default Schedule Set Name
  -0,                                     !- Direction of Relative North {deg}
  0,                                      !- X Origin {m}
  0,                                      !- Y Origin {m}
  0,                                      !- Z Origin {m}
  {5f6281e4-e9fe-45df-8c28-9ae4c440346b}, !- Building Story Name
  ;                                       !- Thermal Zone Name

OS:Space,
  {3b8908c0-9d4c-4da9-9524-09f27f17e5d6}, !- Handle
  "EL2 South Perim Spc (G.S1)",           !- Name
  {8ae54457-9b5a-4a33-baec-e1b5cb6be1d2}, !- Space Type Name
  ,                                       !- Default Construction Set Name
  ,                                       !- Default Schedule Set Name
  -0,                                     !- Direction of Relative North {deg}
  0,                                      !- X Origin {m}
  0,                                      !- Y Origin {m}
  0,                                      !- Z Origin {m}
  {8ab96fe4-c920-4744-9cc8-d8874d8926be}, !- Building Story Name
  ;                                       !- Thermal Zone Name

OS:Space,
  {06967525-fd8f-4129-a919-58f76cbf7650}, !- Handle
  "EL2 North Perim Spc (G.N2)",           !- Name
  {292a8970-9b4c-4d61-b605-c7228d59bf27}, !- Space Type Name
  ,                                       !- Default Construction Set Name
  ,                                       !- Default Schedule Set Name
  -0,                                     !- Direction of Relative North {deg}
  0,                                      !- X Origin {m}
  0,                                      !- Y Origin {m}
  0,                                      !- Z Origin {m}
  {8ab96fe4-c920-4744-9cc8-d8874d8926be}, !- Building Story Name
  ;                                       !- Thermal Zone Name

OS:Space,
  {6537f0d7-0141-4822-a692-82005ade1d18}, !- Handle
  "EL2 West Perim Spc (G.W3)",            !- Name
  {863db592-be70-41ba-a2fd-05fbaa516dfd}, !- Space Type Name
  ,                                       !- Default Construction Set Name
  ,                                       !- Default Schedule Set Name
  -0,                                     !- Direction of Relative North {deg}
  0,                                      !- X Origin {m}
  0,                                      !- Y Origin {m}
  0,                                      !- Z Origin {m}
  {8ab96fe4-c920-4744-9cc8-d8874d8926be}, !- Building Story Name
  ;                                       !- Thermal Zone Name

OS:Space,
  {353684a3-4600-4e5f-97ed-12b2e12cfd88}, !- Handle
  "EL2 South Perim Plnm (G.S4)",          !- Name
  ,                                       !- Space Type Name
  ,                                       !- Default Construction Set Name
  ,                                       !- Default Schedule Set Name
  -0,                                     !- Direction of Relative North {deg}
  0,                                      !- X Origin {m}
  0,                                      !- Y Origin {m}
  0,                                      !- Z Origin {m}
  {8ab96fe4-c920-4744-9cc8-d8874d8926be}, !- Building Story Name
  ;                                       !- Thermal Zone Name

OS:Space,
  {3a25ce6b-0609-4a9e-ab34-6cf450cf30ae}, !- Handle
  "EL2 North Perim Plnm (G.N5)",          !- Name
  ,                                       !- Space Type Name
  ,                                       !- Default Construction Set Name
  ,                                       !- Default Schedule Set Name
  -0,                                     !- Direction of Relative North {deg}
  0,                                      !- X Origin {m}
  0,                                      !- Y Origin {m}
  0,                                      !- Z Origin {m}
  {8ab96fe4-c920-4744-9cc8-d8874d8926be}, !- Building Story Name
  ;                                       !- Thermal Zone Name

OS:Space,
  {0b44a1fe-5caf-47a4-8576-5f2e9c40ed3e}, !- Handle
  "EL2 West Perim Plnm (G.W6)",           !- Name
  ,                                       !- Space Type Name
  ,                                       !- Default Construction Set Name
  ,                                       !- Default Schedule Set Name
  -0,                                     !- Direction of Relative North {deg}
  0,                                      !- X Origin {m}
  0,                                      !- Y Origin {m}
  0,                                      !- Z Origin {m}
  {8ab96fe4-c920-4744-9cc8-d8874d8926be}, !- Building Story Name
  ;                                       !- Thermal Zone Name

OS:Space,
  {4b56956e-6c67-4f99-9a2a-e54c98caf149}, !- Handle
  "EL3 North Perim Spc (G.N1)",           !- Name
  {292a8970-9b4c-4d61-b605-c7228d59bf27}, !- Space Type Name
  ,                                       !- Default Construction Set Name
  ,                                       !- Default Schedule Set Name
  -0,                                     !- Direction of Relative North {deg}
  0,                                      !- X Origin {m}
  0,                                      !- Y Origin {m}
  0,                                      !- Z Origin {m}
  {c072c6f1-e6b4-4656-9bca-f2d13eec1cfa}, !- Building Story Name
  ;                                       !- Thermal Zone Name

OS:Space,
  {36802906-6a6b-4504-a4c6-1dcaa4d23d6f}, !- Handle
  "EL3 South Perim Spc (G.S2)",           !- Name
  {8ae54457-9b5a-4a33-baec-e1b5cb6be1d2}, !- Space Type Name
  ,                                       !- Default Construction Set Name
  ,                                       !- Default Schedule Set Name
  -0,                                     !- Direction of Relative North {deg}
  0,                                      !- X Origin {m}
  0,                                      !- Y Origin {m}
  0,                                      !- Z Origin {m}
  {c072c6f1-e6b4-4656-9bca-f2d13eec1cfa}, !- Building Story Name
  ;                                       !- Thermal Zone Name

OS:Space,
  {2382430d-43cb-4cb9-93f0-70c32eaaf52b}, !- Handle
  "EL3 West Perim Spc (G.W3)",            !- Name
  {863db592-be70-41ba-a2fd-05fbaa516dfd}, !- Space Type Name
  ,                                       !- Default Construction Set Name
  ,                                       !- Default Schedule Set Name
  -0,                                     !- Direction of Relative North {deg}
  0,                                      !- X Origin {m}
  0,                                      !- Y Origin {m}
  0,                                      !- Z Origin {m}
  {c072c6f1-e6b4-4656-9bca-f2d13eec1cfa}, !- Building Story Name
  ;                                       !- Thermal Zone Name

OS:Space,
  {11a2f89e-2b9f-4cdd-84ef-2c15836f6f32}, !- Handle
  "EL3 North Perim Plnm (G.N4)",          !- Name
  ,                                       !- Space Type Name
  ,                                       !- Default Construction Set Name
  ,                                       !- Default Schedule Set Name
  -0,                                     !- Direction of Relative North {deg}
  0,                                      !- X Origin {m}
  0,                                      !- Y Origin {m}
  0,                                      !- Z Origin {m}
  {c072c6f1-e6b4-4656-9bca-f2d13eec1cfa}, !- Building Story Name
  ;                                       !- Thermal Zone Name

OS:Space,
  {9369cedf-f6df-4bc7-a75a-c88382d5c757}, !- Handle
  "EL3 South Perim Plnm (G.S5)",          !- Name
  ,                                       !- Space Type Name
  ,                                       !- Default Construction Set Name
  ,                                       !- Default Schedule Set Name
  -0,                                     !- Direction of Relative North {deg}
  0,                                      !- X Origin {m}
  0,                                      !- Y Origin {m}
  0,                                      !- Z Origin {m}
  {c072c6f1-e6b4-4656-9bca-f2d13eec1cfa}, !- Building Story Name
  ;                                       !- Thermal Zone Name

OS:Space,
  {d63b6815-9dfe-446b-9523-7d377a8eaf4a}, !- Handle
  "EL3 West Perim Plnm (G.W6)",           !- Name
  ,                                       !- Space Type Name
  ,                                       !- Default Construction Set Name
  ,                                       !- Default Schedule Set Name
  -0,                                     !- Direction of Relative North {deg}
  0,                                      !- X Origin {m}
  0,                                      !- Y Origin {m}
  0,                                      !- Z Origin {m}
  {c072c6f1-e6b4-4656-9bca-f2d13eec1cfa}, !- Building Story Name
  ;                                       !- Thermal Zone Name

OS:Space,
  {fdcffd6d-b00f-43fc-b067-f2b86f1454ff}, !- Handle
  "EL4 North Perim Spc (G.N1)",           !- Name
  {81f570e1-7dcd-4ba4-984b-0867d4bfb904}, !- Space Type Name
  ,                                       !- Default Construction Set Name
  ,                                       !- Default Schedule Set Name
  -0,                                     !- Direction of Relative North {deg}
  0,                                      !- X Origin {m}
  0,                                      !- Y Origin {m}
  0,                                      !- Z Origin {m}
  {7cebb046-1aca-40db-8329-d1c1866f11e0}, !- Building Story Name
  ;                                       !- Thermal Zone Name

OS:Space,
  {737f3396-5854-4d34-b7fb-9135d4053f07}, !- Handle
  "EL4 SSW Perim Spc (G.SSW2)",           !- Name
  {81f570e1-7dcd-4ba4-984b-0867d4bfb904}, !- Space Type Name
  ,                                       !- Default Construction Set Name
  ,                                       !- Default Schedule Set Name
  -0,                                     !- Direction of Relative North {deg}
  0,                                      !- X Origin {m}
  0,                                      !- Y Origin {m}
  0,                                      !- Z Origin {m}
  {7cebb046-1aca-40db-8329-d1c1866f11e0}, !- Building Story Name
  ;                                       !- Thermal Zone Name

OS:Space,
  {d4c5fbc6-7e0e-4126-9e48-5d023e1a5b62}, !- Handle
  "EL4 NNE Perim Spc (G.NNE3)",           !- Name
  {81f570e1-7dcd-4ba4-984b-0867d4bfb904}, !- Space Type Name
  ,                                       !- Default Construction Set Name
  ,                                       !- Default Schedule Set Name
  -0,                                     !- Direction of Relative North {deg}
  0,                                      !- X Origin {m}
  0,                                      !- Y Origin {m}
  0,                                      !- Z Origin {m}
  {7cebb046-1aca-40db-8329-d1c1866f11e0}, !- Building Story Name
  ;                                       !- Thermal Zone Name

OS:Space,
  {18cf74eb-7ba4-45fe-9fe7-e04476697e0c}, !- Handle
  "EL4 South Perim Spc (G.S4)",           !- Name
  {81f570e1-7dcd-4ba4-984b-0867d4bfb904}, !- Space Type Name
  ,                                       !- Default Construction Set Name
  ,                                       !- Default Schedule Set Name
  -0,                                     !- Direction of Relative North {deg}
  0,                                      !- X Origin {m}
  0,                                      !- Y Origin {m}
  0,                                      !- Z Origin {m}
  {7cebb046-1aca-40db-8329-d1c1866f11e0}, !- Building Story Name
  ;                                       !- Thermal Zone Name

OS:Space,
  {9b5cd424-33ea-4ecf-869d-85890d8589c2}, !- Handle
  "EL4 Core Spc (G.C5)",                  !- Name
  {556c6347-b7be-4a7a-bf80-da065b46a276}, !- Space Type Name
  ,                                       !- Default Construction Set Name
  ,                                       !- Default Schedule Set Name
  -0,                                     !- Direction of Relative North {deg}
  0,                                      !- X Origin {m}
  0,                                      !- Y Origin {m}
  0,                                      !- Z Origin {m}
  {7cebb046-1aca-40db-8329-d1c1866f11e0}, !- Building Story Name
  ;                                       !- Thermal Zone Name

OS:Space,
  {efc23124-50c0-4e67-9e81-cb5d7168541b}, !- Handle
  "EL4 North Perim Plnm (G.N6)",          !- Name
  ,                                       !- Space Type Name
  ,                                       !- Default Construction Set Name
  ,                                       !- Default Schedule Set Name
  -0,                                     !- Direction of Relative North {deg}
  0,                                      !- X Origin {m}
  0,                                      !- Y Origin {m}
  0,                                      !- Z Origin {m}
  {7cebb046-1aca-40db-8329-d1c1866f11e0}, !- Building Story Name
  ;                                       !- Thermal Zone Name

OS:Space,
  {87357e8f-7fe7-4251-88a8-aab5968b4565}, !- Handle
  "EL4 SSW Perim Plnm (G.SSW7)",          !- Name
  ,                                       !- Space Type Name
  ,                                       !- Default Construction Set Name
  ,                                       !- Default Schedule Set Name
  -0,                                     !- Direction of Relative North {deg}
  0,                                      !- X Origin {m}
  0,                                      !- Y Origin {m}
  0,                                      !- Z Origin {m}
  {7cebb046-1aca-40db-8329-d1c1866f11e0}, !- Building Story Name
  ;                                       !- Thermal Zone Name

OS:Space,
  {52fdb51f-b2aa-4a44-bce3-2b83c25ca8df}, !- Handle
  "EL4 NNE Perim Plnm (G.NNE8)",          !- Name
  ,                                       !- Space Type Name
  ,                                       !- Default Construction Set Name
  ,                                       !- Default Schedule Set Name
  -0,                                     !- Direction of Relative North {deg}
  0,                                      !- X Origin {m}
  0,                                      !- Y Origin {m}
  0,                                      !- Z Origin {m}
  {7cebb046-1aca-40db-8329-d1c1866f11e0}, !- Building Story Name
  ;                                       !- Thermal Zone Name

OS:Space,
  {3c84fcb7-1556-4d4a-b585-83c9df3ce911}, !- Handle
  "EL4 South Perim Plnm (G.S9)",          !- Name
  ,                                       !- Space Type Name
  ,                                       !- Default Construction Set Name
  ,                                       !- Default Schedule Set Name
  -0,                                     !- Direction of Relative North {deg}
  0,                                      !- X Origin {m}
  0,                                      !- Y Origin {m}
  0,                                      !- Z Origin {m}
  {7cebb046-1aca-40db-8329-d1c1866f11e0}, !- Building Story Name
  ;                                       !- Thermal Zone Name

OS:Space,
  {97f544f0-6251-480d-912d-d21a56e962cf}, !- Handle
  "EL4 Core Plnm (G.C10)",                !- Name
  ,                                       !- Space Type Name
  ,                                       !- Default Construction Set Name
  ,                                       !- Default Schedule Set Name
  -0,                                     !- Direction of Relative North {deg}
  0,                                      !- X Origin {m}
  0,                                      !- Y Origin {m}
  0,                                      !- Z Origin {m}
  {7cebb046-1aca-40db-8329-d1c1866f11e0}, !- Building Story Name
  ;                                       !- Thermal Zone Name

OS:Space,
  {f54fda7a-0d96-488f-8f86-3686d63acec4}, !- Handle
  "EL4 North Perim Spc (M.N11)",          !- Name
  {81f570e1-7dcd-4ba4-984b-0867d4bfb904}, !- Space Type Name
  ,                                       !- Default Construction Set Name
  ,                                       !- Default Schedule Set Name
  -0,                                     !- Direction of Relative North {deg}
  0,                                      !- X Origin {m}
  0,                                      !- Y Origin {m}
  0,                                      !- Z Origin {m}
  {b2b5f7dd-87d9-4f44-ad58-16ebed0a323b}, !- Building Story Name
  ;                                       !- Thermal Zone Name

OS:Space,
  {bcd308fb-b528-47bd-9353-85d068eef464}, !- Handle
  "EL4 SSW Perim Spc (M.SSW12)",          !- Name
  {81f570e1-7dcd-4ba4-984b-0867d4bfb904}, !- Space Type Name
  ,                                       !- Default Construction Set Name
  ,                                       !- Default Schedule Set Name
  -0,                                     !- Direction of Relative North {deg}
  0,                                      !- X Origin {m}
  0,                                      !- Y Origin {m}
  0,                                      !- Z Origin {m}
  {b2b5f7dd-87d9-4f44-ad58-16ebed0a323b}, !- Building Story Name
  ;                                       !- Thermal Zone Name

OS:Space,
  {118649ec-bdee-45cb-ac77-ccf38a9812b5}, !- Handle
  "EL4 NNE Perim Spc (M.NNE13)",          !- Name
  {81f570e1-7dcd-4ba4-984b-0867d4bfb904}, !- Space Type Name
  ,                                       !- Default Construction Set Name
  ,                                       !- Default Schedule Set Name
  -0,                                     !- Direction of Relative North {deg}
  0,                                      !- X Origin {m}
  0,                                      !- Y Origin {m}
  0,                                      !- Z Origin {m}
  {b2b5f7dd-87d9-4f44-ad58-16ebed0a323b}, !- Building Story Name
  ;                                       !- Thermal Zone Name

OS:Space,
  {313fae34-a156-421f-a93a-d53a5ad38c48}, !- Handle
  "EL4 South Perim Spc (M.S14)",          !- Name
  {81f570e1-7dcd-4ba4-984b-0867d4bfb904}, !- Space Type Name
  ,                                       !- Default Construction Set Name
  ,                                       !- Default Schedule Set Name
  -0,                                     !- Direction of Relative North {deg}
  0,                                      !- X Origin {m}
  0,                                      !- Y Origin {m}
  0,                                      !- Z Origin {m}
  {b2b5f7dd-87d9-4f44-ad58-16ebed0a323b}, !- Building Story Name
  ;                                       !- Thermal Zone Name

OS:Space,
  {11ba654c-aa35-4291-bad5-506a202600a7}, !- Handle
  "EL4 Core Spc (M.C15)",                 !- Name
  {556c6347-b7be-4a7a-bf80-da065b46a276}, !- Space Type Name
  ,                                       !- Default Construction Set Name
  ,                                       !- Default Schedule Set Name
  -0,                                     !- Direction of Relative North {deg}
  0,                                      !- X Origin {m}
  0,                                      !- Y Origin {m}
  0,                                      !- Z Origin {m}
  {b2b5f7dd-87d9-4f44-ad58-16ebed0a323b}, !- Building Story Name
  ;                                       !- Thermal Zone Name

OS:Space,
  {3c489d03-6ff0-4260-bf06-68b4b74c4c3f}, !- Handle
  "EL4 North Perim Plnm (M.N16)",         !- Name
  ,                                       !- Space Type Name
  ,                                       !- Default Construction Set Name
  ,                                       !- Default Schedule Set Name
  -0,                                     !- Direction of Relative North {deg}
  0,                                      !- X Origin {m}
  0,                                      !- Y Origin {m}
  0,                                      !- Z Origin {m}
  {b2b5f7dd-87d9-4f44-ad58-16ebed0a323b}, !- Building Story Name
  ;                                       !- Thermal Zone Name

OS:Space,
  {03295e75-c489-4296-9a87-a0008e54c950}, !- Handle
  "EL4 SSW Perim Plnm (M.SSW17)",         !- Name
  ,                                       !- Space Type Name
  ,                                       !- Default Construction Set Name
  ,                                       !- Default Schedule Set Name
  -0,                                     !- Direction of Relative North {deg}
  0,                                      !- X Origin {m}
  0,                                      !- Y Origin {m}
  0,                                      !- Z Origin {m}
  {b2b5f7dd-87d9-4f44-ad58-16ebed0a323b}, !- Building Story Name
  ;                                       !- Thermal Zone Name

OS:Space,
  {e9f21ad1-ce65-4827-b41b-8fe017074b77}, !- Handle
  "EL4 NNE Perim Plnm (M.NNE18)",         !- Name
  ,                                       !- Space Type Name
  ,                                       !- Default Construction Set Name
  ,                                       !- Default Schedule Set Name
  -0,                                     !- Direction of Relative North {deg}
  0,                                      !- X Origin {m}
  0,                                      !- Y Origin {m}
  0,                                      !- Z Origin {m}
  {b2b5f7dd-87d9-4f44-ad58-16ebed0a323b}, !- Building Story Name
  ;                                       !- Thermal Zone Name

OS:Space,
  {c74af055-736f-4f23-a488-317ac0e635de}, !- Handle
  "EL4 South Perim Plnm (M.S19)",         !- Name
  ,                                       !- Space Type Name
  ,                                       !- Default Construction Set Name
  ,                                       !- Default Schedule Set Name
  -0,                                     !- Direction of Relative North {deg}
  0,                                      !- X Origin {m}
  0,                                      !- Y Origin {m}
  0,                                      !- Z Origin {m}
  {b2b5f7dd-87d9-4f44-ad58-16ebed0a323b}, !- Building Story Name
  ;                                       !- Thermal Zone Name

OS:Space,
  {03a3fd42-9cff-408d-b128-197a66c424bf}, !- Handle
  "EL4 Core Plnm (M.C20)",                !- Name
  ,                                       !- Space Type Name
  ,                                       !- Default Construction Set Name
  ,                                       !- Default Schedule Set Name
  -0,                                     !- Direction of Relative North {deg}
  0,                                      !- X Origin {m}
  0,                                      !- Y Origin {m}
  0,                                      !- Z Origin {m}
  {b2b5f7dd-87d9-4f44-ad58-16ebed0a323b}, !- Building Story Name
  ;                                       !- Thermal Zone Name

OS:Space,
  {5115d36e-594c-4f23-b8ad-bfd8a4fe078a}, !- Handle
  "EL4 North Perim Spc (T.N21)",          !- Name
  {81f570e1-7dcd-4ba4-984b-0867d4bfb904}, !- Space Type Name
  ,                                       !- Default Construction Set Name
  ,                                       !- Default Schedule Set Name