
OS:Version,
  {e8446e62-f4cd-465d-bc89-b3e27056465b}, !- Handle
  2.6.0;                                  !- Version Identifier

OS:BuildingStory,
  {ff3af51f-045c-4c90-bab9-13e6536ee5c2}, !- Handle
  EL1 Ground Flr,                         !- Name
  ,                                       !- Nominal Z Coordinate {m}
  ,                                       !- Nominal Floor to Floor Height {m}
  ,                                       !- Default Construction Set Name
  ,                                       !- Default Schedule Set Name
  ;                                       !- Group Rendering Name

OS:Space,
  {b53f31a4-4a6d-403d-b967-293e74261980}, !- Handle
  EL1 South Perim Spc (G.S1),             !- Name
  {b62ef3c7-cfdd-4892-8059-1446e6861f65}, !- Space Type Name
  ,                                       !- Default Construction Set Name
  ,                                       !- Default Schedule Set Name
  -0,                                     !- Direction of Relative North {deg}
  0,                                      !- X Origin {m}
  0,                                      !- Y Origin {m}
  0,                                      !- Z Origin {m}
  {ff3af51f-045c-4c90-bab9-13e6536ee5c2}, !- Building Story Name
  {e6092d3d-ae3a-479c-8911-ad18f73ef51d}, !- Thermal Zone Name
  ,                                       !- Part of Total Floor Area
  ,                                       !- Design Specification Outdoor Air Object Name
  ;                                       !- Building Unit Name

OS:Space,
  {d6e220e2-3217-4bb9-a644-7a3240efdfeb}, !- Handle
  EL1 North Perim Spc (G.N2),             !- Name
  {6d0a25b7-7aca-469d-9977-c6b57fcef994}, !- Space Type Name
  ,                                       !- Default Construction Set Name
  ,                                       !- Default Schedule Set Name
  -0,                                     !- Direction of Relative North {deg}
  0,                                      !- X Origin {m}
  0,                                      !- Y Origin {m}
  0,                                      !- Z Origin {m}
  {ff3af51f-045c-4c90-bab9-13e6536ee5c2}, !- Building Story Name
  {0ae5351c-7c4c-44a2-b168-c43c80f37058}, !- Thermal Zone Name
  ,                                       !- Part of Total Floor Area
  ,                                       !- Design Specification Outdoor Air Object Name
  ;                                       !- Building Unit Name

OS:Space,
  {506416dc-4b51-414d-b52d-757cabbd98dd}, !- Handle
  EL1 South Perim Plnm (G.S3),            !- Name
  {2e014483-d627-4aae-8c11-02fbd1124f19}, !- Space Type Name
  ,                                       !- Default Construction Set Name
  ,                                       !- Default Schedule Set Name
  -0,                                     !- Direction of Relative North {deg}
  0,                                      !- X Origin {m}
  0,                                      !- Y Origin {m}
  0,                                      !- Z Origin {m}
  {ff3af51f-045c-4c90-bab9-13e6536ee5c2}, !- Building Story Name
  {8ad3a1d5-971d-4b92-9dca-911e33f9f109}, !- Thermal Zone Name
  No;                                     !- Part of Total Floor Area

OS:Space,
  {b1e7020c-9c76-4c6d-a166-a935933b2b01}, !- Handle
  EL1 North Perim Plnm (G.N4),            !- Name
  {2e014483-d627-4aae-8c11-02fbd1124f19}, !- Space Type Name
  ,                                       !- Default Construction Set Name
  ,                                       !- Default Schedule Set Name
  -0,                                     !- Direction of Relative North {deg}
  0,                                      !- X Origin {m}
  0,                                      !- Y Origin {m}
  0,                                      !- Z Origin {m}
  {ff3af51f-045c-4c90-bab9-13e6536ee5c2}, !- Building Story Name
  {baf18eca-8b47-4845-ab7f-6e2675cc156b}, !- Thermal Zone Name
  No;                                     !- Part of Total Floor Area

OS:Surface,
  {9dfaba86-6449-4630-8cde-6790c0f81a4c}, !- Handle
  EL1 South Wall (G.S1.E1),               !- Name
  Wall,                                   !- Surface Type
  ,                                       !- Construction Name
  {b53f31a4-4a6d-403d-b967-293e74261980}, !- Space Name
  Outdoors,                               !- Outside Boundary Condition
  ,                                       !- Outside Boundary Condition Object
  SunExposed,                             !- Sun Exposure
  WindExposed,                            !- Wind Exposure
  ,                                       !- View Factor to Ground
  ,                                       !- Number of Vertices
  0, 0, 3.048,                            !- X,Y,Z Vertex 1 {m}
  0, 0, 0,                                !- X,Y,Z Vertex 2 {m}
  27.2644, 0, 0,                          !- X,Y,Z Vertex 3 {m}
  27.2644, 0, 3.048;                      !- X,Y,Z Vertex 4 {m}

OS:SubSurface,
  {621ef0d9-1a84-4f2e-b12a-65e1c744717c}, !- Handle
  EL1 South Win (G.S1.E1.W1),             !- Name
  FixedWindow,                            !- Sub Surface Type
  ,                                       !- Construction Name
  {9dfaba86-6449-4630-8cde-6790c0f81a4c}, !- Surface Name
  ,                                       !- Outside Boundary Condition Object
  ,                                       !- View Factor to Ground
  ,                                       !- Shading Control Name
  ,                                       !- Frame and Divider Name
  ,                                       !- Multiplier
  ,                                       !- Number of Vertices
  1.880299008, 0, 2.505456,               !- X,Y,Z Vertex 1 {m}
  1.880299008, 0, 0.9144,                 !- X,Y,Z Vertex 2 {m}
  25.384067088, 0, 0.9144,                !- X,Y,Z Vertex 3 {m}
  25.384067088, 0, 2.505456;              !- X,Y,Z Vertex 4 {m}

OS:Surface,
  {55da1cd5-74eb-427c-acb6-b3f9b38d0c43}, !- Handle
  EL1 East Wall (G.S1.E2),                !- Name
  Wall,                                   !- Surface Type
  ,                                       !- Construction Name
  {b53f31a4-4a6d-403d-b967-293e74261980}, !- Space Name
  Outdoors,                               !- Outside Boundary Condition
  ,                                       !- Outside Boundary Condition Object
  SunExposed,                             !- Sun Exposure
  WindExposed,                            !- Wind Exposure
  ,                                       !- View Factor to Ground
  ,                                       !- Number of Vertices
  27.2644, 0, 3.048,                      !- X,Y,Z Vertex 1 {m}
  27.2644, 0, 0,                          !- X,Y,Z Vertex 2 {m}
  27.2644, 27.2644, 0,                    !- X,Y,Z Vertex 3 {m}
  27.2644, 27.2644, 3.048;                !- X,Y,Z Vertex 4 {m}

OS:SubSurface,
  {fb244f52-6bcf-487e-89e4-848d64c22423}, !- Handle
  EL1 East Win (G.S1.E2.W1),              !- Name
  FixedWindow,                            !- Sub Surface Type
  ,                                       !- Construction Name
  {55da1cd5-74eb-427c-acb6-b3f9b38d0c43}, !- Surface Name
  ,                                       !- Outside Boundary Condition Object
  ,                                       !- View Factor to Ground
  ,                                       !- Shading Control Name
  ,                                       !- Frame and Divider Name
  ,                                       !- Multiplier
  ,                                       !- Number of Vertices
  27.2644, 1.88029900799999, 2.505456,    !- X,Y,Z Vertex 1 {m}
  27.2644, 1.88029900799999, 0.9144,      !- X,Y,Z Vertex 2 {m}
  27.2644, 13.633691808, 0.9144,          !- X,Y,Z Vertex 3 {m}
  27.2644, 13.633691808, 2.505456;        !- X,Y,Z Vertex 4 {m}

OS:Surface,
  {b83aed35-afc4-4ea2-8ba2-ab785ceb5d57}, !- Handle
  EL1 North Wall (G.S1.E3),               !- Name
  Wall,                                   !- Surface Type
  ,                                       !- Construction Name
  {b53f31a4-4a6d-403d-b967-293e74261980}, !- Space Name
  Outdoors,                               !- Outside Boundary Condition
  ,                                       !- Outside Boundary Condition Object
  SunExposed,                             !- Sun Exposure
  WindExposed,                            !- Wind Exposure
  ,                                       !- View Factor to Ground
  ,                                       !- Number of Vertices
  2.7249, 27.2644, 3.048,                 !- X,Y,Z Vertex 1 {m}
  2.7249, 27.2644, 0,                     !- X,Y,Z Vertex 2 {m}
  0, 27.2644, 0,                          !- X,Y,Z Vertex 3 {m}
  0, 27.2644, 3.048;                      !- X,Y,Z Vertex 4 {m}

OS:Surface,
  {c733168d-a1a9-44fc-a800-4cba2d0ee210}, !- Handle
  EL1 West Wall (G.S1.E4),                !- Name
  Wall,                                   !- Surface Type
  ,                                       !- Construction Name
  {b53f31a4-4a6d-403d-b967-293e74261980}, !- Space Name
  Outdoors,                               !- Outside Boundary Condition
  ,                                       !- Outside Boundary Condition Object
  SunExposed,                             !- Sun Exposure
  WindExposed,                            !- Wind Exposure
  ,                                       !- View Factor to Ground
  ,                                       !- Number of Vertices
  0, 13.6322, 3.048,                      !- X,Y,Z Vertex 1 {m}
  0, 13.6322, 0,                          !- X,Y,Z Vertex 2 {m}
  0, 0, 0,                                !- X,Y,Z Vertex 3 {m}
  0, 0, 3.048;                            !- X,Y,Z Vertex 4 {m}

OS:Surface,
  {519182a2-48a3-4233-a289-d0813681f826}, !- Handle
  EL1 East Wall (G.S1.I1),                !- Name
  Wall,                                   !- Surface Type
  ,                                       !- Construction Name
  {b53f31a4-4a6d-403d-b967-293e74261980}, !- Space Name
  Outdoors,                               !- Outside Boundary Condition
  ,                                       !- Outside Boundary Condition Object
  SunExposed,                             !- Sun Exposure
  WindExposed,                            !- Wind Exposure
  ,                                       !- View Factor to Ground
  ,                                       !- Number of Vertices
  27.2644, 13.6337, 3.048,                !- X,Y,Z Vertex 1 {m}
  27.2644, 13.6337, 0,                    !- X,Y,Z Vertex 2 {m}
  27.2644, 27.2644, 0,                    !- X,Y,Z Vertex 3 {m}
  27.2644, 27.2644, 3.048;                !- X,Y,Z Vertex 4 {m}

OS:Surface,
  {15979f32-1740-45ab-9d1b-5709cb188f39}, !- Handle
  EL1 North Wall (G.S1.I2),               !- Name
  Wall,                                   !- Surface Type
  ,                                       !- Construction Name
  {b53f31a4-4a6d-403d-b967-293e74261980}, !- Space Name
  Outdoors,                               !- Outside Boundary Condition
  ,                                       !- Outside Boundary Condition Object
  SunExposed,                             !- Sun Exposure
  WindExposed,                            !- Wind Exposure
  ,                                       !- View Factor to Ground
  ,                                       !- Number of Vertices
  27.2644, 27.2644, 3.048,                !- X,Y,Z Vertex 1 {m}
  27.2644, 27.2644, 0,                    !- X,Y,Z Vertex 2 {m}
  24.5364, 27.2644, 0,                    !- X,Y,Z Vertex 3 {m}
  24.5364, 27.2644, 3.048;                !- X,Y,Z Vertex 4 {m}

OS:Surface,
  {d9b24143-8243-494a-9548-a834ca3805d2}, !- Handle
  EL1 West Wall (G.S1.I3),                !- Name
  Wall,                                   !- Surface Type
  ,                                       !- Construction Name
  {b53f31a4-4a6d-403d-b967-293e74261980}, !- Space Name
  Surface,                                !- Outside Boundary Condition
  {2285e818-3e0d-4ddd-96c7-1d6308904587}, !- Outside Boundary Condition Object
  NoSun,                                  !- Sun Exposure
  NoWind,                                 !- Wind Exposure
  ,                                       !- View Factor to Ground
  ,                                       !- Number of Vertices
  24.5364, 27.2644, 3.048,                !- X,Y,Z Vertex 1 {m}
  24.5364, 27.2644, 0,                    !- X,Y,Z Vertex 2 {m}
  24.5364, 20.449, 0,                     !- X,Y,Z Vertex 3 {m}
  24.5364, 20.449, 3.048;                 !- X,Y,Z Vertex 4 {m}

OS:Surface,
  {2285e818-3e0d-4ddd-96c7-1d6308904587}, !- Handle
  EL1 West Wall (G.S1.I3)-mirror,         !- Name
  Wall,                                   !- Surface Type
  ,                                       !- Construction Name
  {d6e220e2-3217-4bb9-a644-7a3240efdfeb}, !- Space Name
  Surface,                                !- Outside Boundary Condition
  {d9b24143-8243-494a-9548-a834ca3805d2}, !- Outside Boundary Condition Object
  NoSun,                                  !- Sun Exposure
  NoWind,                                 !- Wind Exposure
  ,                                       !- View Factor to Ground
  ,                                       !- Number of Vertices
  24.5364, 20.449, 3.048,                 !- X,Y,Z Vertex 1 {m}
  24.5364, 20.449, 0,                     !- X,Y,Z Vertex 2 {m}
  24.5364, 27.2644, 0,                    !- X,Y,Z Vertex 3 {m}
  24.5364, 27.2644, 3.048;                !- X,Y,Z Vertex 4 {m}

OS:Surface,
  {f914e8ca-469f-4cd2-8e7a-8229bc2b143c}, !- Handle
  EL1 North Wall (G.S1.I4),               !- Name
  Wall,                                   !- Surface Type
  ,                                       !- Construction Name
  {b53f31a4-4a6d-403d-b967-293e74261980}, !- Space Name
  Surface,                                !- Outside Boundary Condition
  {ee630398-053b-491c-aa34-17fb4218fdb8}, !- Outside Boundary Condition Object
  NoSun,                                  !- Sun Exposure
  NoWind,                                 !- Wind Exposure
  ,                                       !- View Factor to Ground
  ,                                       !- Number of Vertices
  24.5364, 20.449, 3.048,                 !- X,Y,Z Vertex 1 {m}
  24.5364, 20.449, 0,                     !- X,Y,Z Vertex 2 {m}
  2.7249, 20.449, 0,                      !- X,Y,Z Vertex 3 {m}
  2.7249, 20.449, 3.048;                  !- X,Y,Z Vertex 4 {m}

OS:Surface,
  {ee630398-053b-491c-aa34-17fb4218fdb8}, !- Handle
  EL1 North Wall (G.S1.I4)-mirror,        !- Name
  Wall,                                   !- Surface Type
  ,                                       !- Construction Name
  {d6e220e2-3217-4bb9-a644-7a3240efdfeb}, !- Space Name
  Surface,                                !- Outside Boundary Condition
  {f914e8ca-469f-4cd2-8e7a-8229bc2b143c}, !- Outside Boundary Condition Object
  NoSun,                                  !- Sun Exposure
  NoWind,                                 !- Wind Exposure
  ,                                       !- View Factor to Ground
  ,                                       !- Number of Vertices
  2.7249, 20.449, 3.048,                  !- X,Y,Z Vertex 1 {m}
  2.7249, 20.449, 0,                      !- X,Y,Z Vertex 2 {m}
  24.5364, 20.449, 0,                     !- X,Y,Z Vertex 3 {m}
  24.5364, 20.449, 3.048;                 !- X,Y,Z Vertex 4 {m}

OS:Surface,
  {4881c5c6-1b67-4d5b-b0a5-208421fbf2b7}, !- Handle
  EL1 East Wall (G.S1.I5),                !- Name
  Wall,                                   !- Surface Type
  ,                                       !- Construction Name
  {b53f31a4-4a6d-403d-b967-293e74261980}, !- Space Name
  Surface,                                !- Outside Boundary Condition
  {7d614567-fa05-47cd-804f-6357406e9859}, !- Outside Boundary Condition Object
  NoSun,                                  !- Sun Exposure
  NoWind,                                 !- Wind Exposure
  ,                                       !- View Factor to Ground
  ,                                       !- Number of Vertices
  2.7249, 20.449, 3.048,                  !- X,Y,Z Vertex 1 {m}
  2.7249, 20.449, 0,                      !- X,Y,Z Vertex 2 {m}
  2.7249, 27.2644, 0,                     !- X,Y,Z Vertex 3 {m}
  2.7249, 27.2644, 3.048;                 !- X,Y,Z Vertex 4 {m}

OS:Surface,
  {7d614567-fa05-47cd-804f-6357406e9859}, !- Handle
  EL1 East Wall (G.S1.I5)-mirror,         !- Name
  Wall,                                   !- Surface Type
  ,                                       !- Construction Name
  {d6e220e2-3217-4bb9-a644-7a3240efdfeb}, !- Space Name
  Surface,                                !- Outside Boundary Condition
  {4881c5c6-1b67-4d5b-b0a5-208421fbf2b7}, !- Outside Boundary Condition Object
  NoSun,                                  !- Sun Exposure
  NoWind,                                 !- Wind Exposure
  ,                                       !- View Factor to Ground
  ,                                       !- Number of Vertices
  2.7249, 27.2644, 3.048,                 !- X,Y,Z Vertex 1 {m}
  2.7249, 27.2644, 0,                     !- X,Y,Z Vertex 2 {m}
  2.7249, 20.449, 0,                      !- X,Y,Z Vertex 3 {m}
  2.7249, 20.449, 3.048;                  !- X,Y,Z Vertex 4 {m}

OS:Surface,
  {1f34bd21-fc38-4e6b-9d5d-9ce2ed423cf3}, !- Handle
  EL1 West Wall (G.S1.I6),                !- Name
  Wall,                                   !- Surface Type
  ,                                       !- Construction Name
  {b53f31a4-4a6d-403d-b967-293e74261980}, !- Space Name
  Outdoors,                               !- Outside Boundary Condition
  ,                                       !- Outside Boundary Condition Object
  SunExposed,                             !- Sun Exposure
  WindExposed,                            !- Wind Exposure
  ,                                       !- View Factor to Ground
  ,                                       !- Number of Vertices
  0, 27.2644, 3.048,                      !- X,Y,Z Vertex 1 {m}
  0, 27.2644, 0,                          !- X,Y,Z Vertex 2 {m}
  0, 13.6322, 0,                          !- X,Y,Z Vertex 3 {m}
  0, 13.6322, 3.048;                      !- X,Y,Z Vertex 4 {m}

OS:Surface,
  {7a7d1ecb-70fb-4ab9-9b1c-240bdca56038}, !- Handle
  EL1 Ceiling (G.S1.I7),                  !- Name
  RoofCeiling,                            !- Surface Type
  ,                                       !- Construction Name
  {b53f31a4-4a6d-403d-b967-293e74261980}, !- Space Name
  Surface,                                !- Outside Boundary Condition
  {586c905a-dabd-4593-9cdb-ffd5493532c8}, !- Outside Boundary Condition Object
  NoSun,                                  !- Sun Exposure
  NoWind,                                 !- Wind Exposure
  ,                                       !- View Factor to Ground
  ,                                       !- Number of Vertices
  27.2644, 0, 3.048,                      !- X,Y,Z Vertex 1 {m}
  27.2644, 27.2644, 3.048,                !- X,Y,Z Vertex 2 {m}
  24.5364, 27.2644, 3.048,                !- X,Y,Z Vertex 3 {m}
  24.5364, 20.449, 3.048,                 !- X,Y,Z Vertex 4 {m}
  2.7249, 20.449, 3.048,                  !- X,Y,Z Vertex 5 {m}
  2.7249, 27.2644, 3.048,                 !- X,Y,Z Vertex 6 {m}
  0, 27.2644, 3.048,                      !- X,Y,Z Vertex 7 {m}
  0, 0, 3.048;                            !- X,Y,Z Vertex 8 {m}

OS:Surface,
  {586c905a-dabd-4593-9cdb-ffd5493532c8}, !- Handle
  EL1 Ceiling (G.S1.I7)-mirror,           !- Name
  Floor,                                  !- Surface Type
  ,                                       !- Construction Name
  {506416dc-4b51-414d-b52d-757cabbd98dd}, !- Space Name
  Surface,                                !- Outside Boundary Condition
  {7a7d1ecb-70fb-4ab9-9b1c-240bdca56038}, !- Outside Boundary Condition Object
  NoSun,                                  !- Sun Exposure
  NoWind,                                 !- Wind Exposure
  ,                                       !- View Factor to Ground
  ,                                       !- Number of Vertices
  27.2644, 27.2644, 3.048,                !- X,Y,Z Vertex 1 {m}
  27.2644, 0, 3.048,                      !- X,Y,Z Vertex 2 {m}
  0, 0, 3.048,                            !- X,Y,Z Vertex 3 {m}
  0, 27.2644, 3.048,                      !- X,Y,Z Vertex 4 {m}
  2.7249, 27.2644, 3.048,                 !- X,Y,Z Vertex 5 {m}
  2.7249, 20.449, 3.048,                  !- X,Y,Z Vertex 6 {m}
  24.5364, 20.449, 3.048,                 !- X,Y,Z Vertex 7 {m}
  24.5364, 27.2644, 3.048;                !- X,Y,Z Vertex 8 {m}

OS:Surface,
  {77ebdbef-27d3-4e6b-ba4b-f842e79815cf}, !- Handle
  EL1 Flr (G.S1.U1),                      !- Name
  Floor,                                  !- Surface Type
  ,                                       !- Construction Name
  {b53f31a4-4a6d-403d-b967-293e74261980}, !- Space Name
  Ground,                                 !- Outside Boundary Condition
  ,                                       !- Outside Boundary Condition Object
  NoSun,                                  !- Sun Exposure
  NoWind,                                 !- Wind Exposure
  ,                                       !- View Factor to Ground
  ,                                       !- Number of Vertices
  27.2644, 27.2644, 0,                    !- X,Y,Z Vertex 1 {m}
  27.2644, 0, 0,                          !- X,Y,Z Vertex 2 {m}
  0, 0, 0,                                !- X,Y,Z Vertex 3 {m}
  0, 27.2644, 0,                          !- X,Y,Z Vertex 4 {m}
  2.7249, 27.2644, 0,                     !- X,Y,Z Vertex 5 {m}
  2.7249, 20.449, 0,                      !- X,Y,Z Vertex 6 {m}
  24.5364, 20.449, 0,                     !- X,Y,Z Vertex 7 {m}
  24.5364, 27.2644, 0;                    !- X,Y,Z Vertex 8 {m}

OS:Surface,
  {3933fd35-b185-46f7-ba04-d7df627eba1c}, !- Handle
  EL1 North Wall (G.N2.E5),               !- Name
  Wall,                                   !- Surface Type
  ,                                       !- Construction Name
  {d6e220e2-3217-4bb9-a644-7a3240efdfeb}, !- Space Name
  Outdoors,                               !- Outside Boundary Condition
  ,                                       !- Outside Boundary Condition Object
  SunExposed,                             !- Sun Exposure
  WindExposed,                            !- Wind Exposure
  ,                                       !- View Factor to Ground
  ,                                       !- Number of Vertices
  13.6322, 27.2644, 3.048,                !- X,Y,Z Vertex 1 {m}
  13.6322, 27.2644, 0,                    !- X,Y,Z Vertex 2 {m}
  2.7249, 27.2644, 0,                     !- X,Y,Z Vertex 3 {m}
  2.7249, 27.2644, 3.048;                 !- X,Y,Z Vertex 4 {m}

OS:Surface,
  {44c4601a-aa08-41bd-b405-0851b94e59d4}, !- Handle
  EL1 North Wall (G.N2.I8),               !- Name
  Wall,                                   !- Surface Type
  ,                                       !- Construction Name
  {d6e220e2-3217-4bb9-a644-7a3240efdfeb}, !- Space Name
  Outdoors,                               !- Outside Boundary Condition
  ,                                       !- Outside Boundary Condition Object
  SunExposed,                             !- Sun Exposure
  WindExposed,                            !- Wind Exposure
  ,                                       !- View Factor to Ground
  ,                                       !- Number of Vertices
  24.5364, 27.2644, 3.048,                !- X,Y,Z Vertex 1 {m}
  24.5364, 27.2644, 0,                    !- X,Y,Z Vertex 2 {m}
  13.6322, 27.2644, 0,                    !- X,Y,Z Vertex 3 {m}
  13.6322, 27.2644, 3.048;                !- X,Y,Z Vertex 4 {m}

OS:Surface,
  {88310136-8b91-4c71-97fd-1512e8f34e65}, !- Handle
  EL1 Ceiling (G.N2.I9),                  !- Name
  RoofCeiling,                            !- Surface Type
  ,                                       !- Construction Name
  {d6e220e2-3217-4bb9-a644-7a3240efdfeb}, !- Space Name
  Surface,                                !- Outside Boundary Condition
  {62b7c080-c430-447f-9f41-024e29e7080a}, !- Outside Boundary Condition Object
  NoSun,                                  !- Sun Exposure
  NoWind,                                 !- Wind Exposure
  ,                                       !- View Factor to Ground
  ,                                       !- Number of Vertices
  24.5364, 20.449, 3.048,                 !- X,Y,Z Vertex 1 {m}
  24.5364, 27.2644, 3.048,                !- X,Y,Z Vertex 2 {m}
  2.7249, 27.2644, 3.048,                 !- X,Y,Z Vertex 3 {m}
  2.7249, 20.449, 3.048;                  !- X,Y,Z Vertex 4 {m}

OS:Surface,
  {62b7c080-c430-447f-9f41-024e29e7080a}, !- Handle
  EL1 Ceiling (G.N2.I9)-mirror,           !- Name
  Floor,                                  !- Surface Type
  ,                                       !- Construction Name
  {b1e7020c-9c76-4c6d-a166-a935933b2b01}, !- Space Name
  Surface,                                !- Outside Boundary Condition
  {88310136-8b91-4c71-97fd-1512e8f34e65}, !- Outside Boundary Condition Object
  NoSun,                                  !- Sun Exposure
  NoWind,                                 !- Wind Exposure
  ,                                       !- View Factor to Ground
  ,                                       !- Number of Vertices
  24.5364, 27.2644, 3.048,                !- X,Y,Z Vertex 1 {m}
  24.5364, 20.449, 3.048,                 !- X,Y,Z Vertex 2 {m}
  2.7249, 20.449, 3.048,                  !- X,Y,Z Vertex 3 {m}
  2.7249, 27.2644, 3.048;                 !- X,Y,Z Vertex 4 {m}

OS:Surface,
  {54df29c4-ccf7-456e-a0ff-defbe3e7922e}, !- Handle
  EL1 Flr (G.N2.U2),                      !- Name
  Floor,                                  !- Surface Type
  ,                                       !- Construction Name
  {d6e220e2-3217-4bb9-a644-7a3240efdfeb}, !- Space Name
  Ground,                                 !- Outside Boundary Condition
  ,                                       !- Outside Boundary Condition Object
  NoSun,                                  !- Sun Exposure
  NoWind,                                 !- Wind Exposure
  ,                                       !- View Factor to Ground
  ,                                       !- Number of Vertices
  24.5364, 27.2644, 0,                    !- X,Y,Z Vertex 1 {m}
  24.5364, 20.449, 0,                     !- X,Y,Z Vertex 2 {m}
  2.7249, 20.449, 0,                      !- X,Y,Z Vertex 3 {m}
  2.7249, 27.2644, 0;                     !- X,Y,Z Vertex 4 {m}

OS:Surface,
  {a75ab1a6-ce18-4aae-afec-73243778aed8}, !- Handle
  EL1 South Wall (G.S3.E6),               !- Name
  Wall,                                   !- Surface Type
  ,                                       !- Construction Name
  {506416dc-4b51-414d-b52d-757cabbd98dd}, !- Space Name
  Outdoors,                               !- Outside Boundary Condition
  ,                                       !- Outside Boundary Condition Object
  SunExposed,                             !- Sun Exposure
  WindExposed,                            !- Wind Exposure
  ,                                       !- View Factor to Ground
  ,                                       !- Number of Vertices
  0, 0, 3.6576,                           !- X,Y,Z Vertex 1 {m}
  0, 0, 3.048,                            !- X,Y,Z Vertex 2 {m}
  27.2644, 0, 3.048,                      !- X,Y,Z Vertex 3 {m}
  27.2644, 0, 3.6576;                     !- X,Y,Z Vertex 4 {m}

OS:Surface,
  {5c6c292b-4508-4778-9f2a-3c32a54dbaf5}, !- Handle
  EL1 East Wall (G.S3.E7),                !- Name
  Wall,                                   !- Surface Type
  ,                                       !- Construction Name
  {506416dc-4b51-414d-b52d-757cabbd98dd}, !- Space Name
  Outdoors,                               !- Outside Boundary Condition
  ,                                       !- Outside Boundary Condition Object
  SunExposed,                             !- Sun Exposure
  WindExposed,                            !- Wind Exposure
  ,                                       !- View Factor to Ground
  ,                                       !- Number of Vertices
  27.2644, 0, 3.6576,                     !- X,Y,Z Vertex 1 {m}
  27.2644, 0, 3.048,                      !- X,Y,Z Vertex 2 {m}
  27.2644, 27.2644, 3.048,                !- X,Y,Z Vertex 3 {m}
  27.2644, 27.2644, 3.6576;               !- X,Y,Z Vertex 4 {m}

OS:Surface,
  {a9ff1f10-cfb1-46c6-9744-e7df09d618f3}, !- Handle
  EL1 North Wall (G.S3.E8),               !- Name
  Wall,                                   !- Surface Type
  ,                                       !- Construction Name
  {506416dc-4b51-414d-b52d-757cabbd98dd}, !- Space Name
  Outdoors,                               !- Outside Boundary Condition
  ,                                       !- Outside Boundary Condition Object
  SunExposed,                             !- Sun Exposure
  WindExposed,                            !- Wind Exposure
  ,                                       !- View Factor to Ground
  ,                                       !- Number of Vertices
  2.7249, 27.2644, 3.6576,                !- X,Y,Z Vertex 1 {m}
  2.7249, 27.2644, 3.048,                 !- X,Y,Z Vertex 2 {m}
  0, 27.2644, 3.048,                      !- X,Y,Z Vertex 3 {m}
  0, 27.2644, 3.6576;                     !- X,Y,Z Vertex 4 {m}

OS:Surface,
  {f44e292f-67c6-47bf-832b-4a041bb0e05c}, !- Handle
  EL1 West Wall (G.S3.E9),                !- Name
  Wall,                                   !- Surface Type
  ,                                       !- Construction Name
  {506416dc-4b51-414d-b52d-757cabbd98dd}, !- Space Name
  Outdoors,                               !- Outside Boundary Condition
  ,                                       !- Outside Boundary Condition Object
  SunExposed,                             !- Sun Exposure
  WindExposed,                            !- Wind Exposure