
Version,
  8.3;                                    !- Version Identifier

Building,
  Small Office,                           !- Name
  -0,                                     !- North Axis {deg}
  ,                                       !- Terrain
  0.04,                                   !- Loads Convergence Tolerance Value
  0.4,                                    !- Temperature Convergence Tolerance Value {deltaC}
  FullExterior,                           !- Solar Distribution
  25,                                     !- Maximum Number of Warmup Days
  ;                                       !- Minimum Number of Warmup Days

Zone,
  Thermal Zone 1,                         !- Name
  -0,                                     !- Direction of Relative North {deg}
  0,                                      !- X Origin {m}
  0,                                      !- Y Origin {m}
  0,                                      !- Z Origin {m}
  ,                                       !- Type
  ,                                       !- Multiplier
  ,                                       !- Ceiling Height {m}
  ,                                       !- Volume {m3}
  ,                                       !- Floor Area {m2}
  ,                                       !- Zone Inside Convection Algorithm
  ;                                       !- Zone Outside Convection Algorithm

BuildingSurface:Detailed,
  Surface 19,                             !- Name
  Floor,                                  !- Surface Type
  000 ExtSlabCarpet 4in ClimateZone 1-8,  !- Construction Name
  Thermal Zone 1,                         !- Zone Name
  Ground,                                 !- Outside Boundary Condition
  ,                                       !- Outside Boundary Condition Object
  NoSun,                                  !- Sun Exposure
  NoWind,                                 !- Wind Exposure
  ,                                       !- View Factor to Ground
  ,                                       !- Number of Vertices
  35.43, 4.57, 0,                         !- X,Y,Z Vertex 1 {m}
  40, 0, 0,                               !- X,Y,Z Vertex 2 {m}
  0, 0, 0,                                !- X,Y,Z Vertex 3 {m}
  4.57, 4.57, 0;                          !- X,Y,Z Vertex 4 {m}

BuildingSurface:Detailed,
  Surface 20,                             !- Name
  Wall,                                   !- Surface Type
  ASHRAE 189.1-2009 ExtWall Mass ClimateZone 5, !- Construction Name
  Thermal Zone 1,                         !- Zone Name
  Outdoors,                               !- Outside Boundary Condition
  ,                                       !- Outside Boundary Condition Object
  SunExposed,                             !- Sun Exposure
  WindExposed,                            !- Wind Exposure
  ,                                       !- View Factor to Ground
  ,                                       !- Number of Vertices
  0, 0, 3.8,                              !- X,Y,Z Vertex 1 {m}
  0, 0, 0,                                !- X,Y,Z Vertex 2 {m}
  40, 0, 0,                               !- X,Y,Z Vertex 3 {m}
  40, 0, 3.8;                             !- X,Y,Z Vertex 4 {m}

FenestrationSurface:Detailed,
  Sub Surface 4,                          !- Name
  Window,                                 !- Surface Type
  ASHRAE 189.1-2009 ExtWindow ClimateZone 4-5, !- Construction Name
  Surface 20,                             !- Building Surface Name
  ,                                       !- Outside Boundary Condition Object
  ,                                       !- View Factor to Ground
  ,                                       !- Shading Control Name
  ,                                       !- Frame and Divider Name
  ,                                       !- Multiplier
  ,                                       !- Number of Vertices
  0.0254, 0, 2.2819328547255,             !- X,Y,Z Vertex 1 {m}
  0.0254, 0, 0.76,                        !- X,Y,Z Vertex 2 {m}
  39.9746, 0, 0.76,                       !- X,Y,Z Vertex 3 {m}
  39.9746, 0, 2.2819328547255;            !- X,Y,Z Vertex 4 {m}

BuildingSurface:Detailed,
  Surface 21,                             !- Name
  Wall,                                   !- Surface Type
  000 Interior Wall,                      !- Construction Name
  Thermal Zone 1,                         !- Zone Name
  Surface,                                !- Outside Boundary Condition
  Surface 5,                              !- Outside Boundary Condition Object
  NoSun,                                  !- Sun Exposure
  NoWind,                                 !- Wind Exposure
  ,                                       !- View Factor to Ground
  ,                                       !- Number of Vertices
  4.57, 4.57, 3.8,                        !- X,Y,Z Vertex 1 {m}
  4.57, 4.57, 0,                          !- X,Y,Z Vertex 2 {m}
  0, 0, 0,                                !- X,Y,Z Vertex 3 {m}
  0, 0, 3.8;                              !- X,Y,Z Vertex 4 {m}

BuildingSurface:Detailed,
  Surface 22,                             !- Name
  Wall,                                   !- Surface Type
  000 Interior Wall,                      !- Construction Name
  Thermal Zone 1,                         !- Zone Name
  Surface,                                !- Outside Boundary Condition
  Surface 29,                             !- Outside Boundary Condition Object
  NoSun,                                  !- Sun Exposure
  NoWind,                                 !- Wind Exposure
  ,                                       !- View Factor to Ground
  ,                                       !- Number of Vertices
  35.43, 4.57, 3.8,                       !- X,Y,Z Vertex 1 {m}
  35.43, 4.57, 0,                         !- X,Y,Z Vertex 2 {m}
  4.57, 4.57, 0,                          !- X,Y,Z Vertex 3 {m}
  4.57, 4.57, 3.8;                        !- X,Y,Z Vertex 4 {m}

BuildingSurface:Detailed,
  Surface 23,                             !- Name
  Wall,                                   !- Surface Type
  000 Interior Wall,                      !- Construction Name
  Thermal Zone 1,                         !- Zone Name
  Surface,                                !- Outside Boundary Condition
  Surface 15,                             !- Outside Boundary Condition Object
  NoSun,                                  !- Sun Exposure
  NoWind,                                 !- Wind Exposure
  ,                                       !- View Factor to Ground
  ,                                       !- Number of Vertices
  40, 4.08374768133815e-015, 3.8,         !- X,Y,Z Vertex 1 {m}
  40, 4.08374768133815e-015, 0,           !- X,Y,Z Vertex 2 {m}
  35.43, 4.57, 0,                         !- X,Y,Z Vertex 3 {m}
  35.43, 4.57, 3.8;                       !- X,Y,Z Vertex 4 {m}

BuildingSurface:Detailed,
  Surface 24,                             !- Name
  Roof,                                   !- Surface Type
  ASHRAE 189.1-2009 ExtRoof IEAD ClimateZone 2-5, !- Construction Name
  Thermal Zone 1,                         !- Zone Name
  Outdoors,                               !- Outside Boundary Condition
  ,                                       !- Outside Boundary Condition Object
  SunExposed,                             !- Sun Exposure
  WindExposed,                            !- Wind Exposure
  ,                                       !- View Factor to Ground
  ,                                       !- Number of Vertices
  40, 0, 3.8,                             !- X,Y,Z Vertex 1 {m}
  35.43, 4.57, 3.8,                       !- X,Y,Z Vertex 2 {m}
  4.57, 4.57, 3.8,                        !- X,Y,Z Vertex 3 {m}
  0, 0, 3.8;                              !- X,Y,Z Vertex 4 {m}

ZoneControl:Thermostat,
  Thermal Zone 1 Thermostat,              !- Name
  Thermal Zone 1,                         !- Zone or ZoneList Name
  Thermal Zone 1 Thermostat Schedule,     !- Control Type Schedule Name
  ThermostatSetpoint:DualSetpoint,        !- Control Object Type 1
  Small Office Thermostat;                !- Control Name 1

Schedule:Compact,
  Thermal Zone 1 Thermostat Schedule,     !- Name
  Thermal Zone 1 Thermostat Schedule Type Limits, !- Schedule Type Limits Name
  Through: 12/31,                         !- Field 1
  For: AllDays,                           !- Field 2
  Until: 24:00,                           !- Field 3
  4;                                      !- Field 4

ScheduleTypeLimits,
  Thermal Zone 1 Thermostat Schedule Type Limits, !- Name
  0,                                      !- Lower Limit Value {BasedOnField A3}
  4,                                      !- Upper Limit Value {BasedOnField A3}
  DISCRETE;                               !- Numeric Type

ThermostatSetpoint:DualSetpoint,
  Small Office Thermostat,                !- Name
  Small Office HtgSetp,                   !- Heating Setpoint Temperature Schedule Name
  Small Office ClgSetp;                   !- Cooling Setpoint Temperature Schedule Name

ScheduleTypeLimits,
  Temperature 1,                          !- Name
  ,                                       !- Lower Limit Value {BasedOnField A3}
  ,                                       !- Upper Limit Value {BasedOnField A3}
  Continuous,                             !- Numeric Type
  temperature;                            !- Unit Type

Schedule:Day:Interval,
  Small Office HtgSetp Rule 1 Day Schedule, !- Name
  Temperature 1,                          !- Schedule Type Limits Name
  No,                                     !- Interpolate to Timestep
  24:00,                                  !- Time 1 {hh:mm}
  15.6;                                   !- Value Until Time 1

Schedule:Day:Interval,
  Small Office HtgSetp Default Schedule,  !- Name
  Temperature 1,                          !- Schedule Type Limits Name
  No,                                     !- Interpolate to Timestep
  06:00,                                  !- Time 1 {hh:mm}
  15.6,                                   !- Value Until Time 1
  22:00,                                  !- Time 2 {hh:mm}
  21,                                     !- Value Until Time 2
  24:00,                                  !- Time 3 {hh:mm}
  15.6;                                   !- Value Until Time 3

Schedule:Day:Interval,
  Small Office HtgSetp Rule 2 Day Schedule, !- Name
  Temperature 1,                          !- Schedule Type Limits Name
  No,                                     !- Interpolate to Timestep
  06:00,                                  !- Time 1 {hh:mm}
  15.6,                                   !- Value Until Time 1
  18:00,                                  !- Time 2 {hh:mm}
  21,                                     !- Value Until Time 2
  24:00,                                  !- Time 3 {hh:mm}
  15.6;                                   !- Value Until Time 3

Schedule:Week:Daily,
  Schedule:Week:Daily {7a09bef2-f512-4cc0-90f7-18e4d8884888}, !- Name
  Small Office HtgSetp Rule 1 Day Schedule, !- Sunday Schedule:Day Name
  Small Office HtgSetp Default Schedule,  !- Monday Schedule:Day Name
  Small Office HtgSetp Default Schedule,  !- Tuesday Schedule:Day Name
  Small Office HtgSetp Default Schedule,  !- Wednesday Schedule:Day Name
  Small Office HtgSetp Default Schedule,  !- Thursday Schedule:Day Name
  Small Office HtgSetp Default Schedule,  !- Friday Schedule:Day Name
  Small Office HtgSetp Rule 2 Day Schedule, !- Saturday Schedule:Day Name
  Small Office HtgSetp Default Schedule,  !- Holiday Schedule:Day Name
  Small Office HtgSetp Summer Design Day, !- SummerDesignDay Schedule:Day Name
  Small Office HtgSetp Winter Design Day, !- WinterDesignDay Schedule:Day Name
  Small Office HtgSetp Default Schedule,  !- CustomDay1 Schedule:Day Name
  Small Office HtgSetp Default Schedule;  !- CustomDay2 Schedule:Day Name

Schedule:Year,
  Small Office HtgSetp,                   !- Name
  Temperature 1,                          !- Schedule Type Limits Name
  Schedule:Week:Daily {7a09bef2-f512-4cc0-90f7-18e4d8884888}, !- Schedule:Week Name 1
  1,                                      !- Start Month 1
  1,                                      !- Start Day 1
  12,                                     !- End Month 1
  31;                                     !- End Day 1

Schedule:Day:Interval,
  Small Office HtgSetp Summer Design Day, !- Name
  Temperature 1,                          !- Schedule Type Limits Name
  No,                                     !- Interpolate to Timestep
  24:00,                                  !- Time 1 {hh:mm}
  15.6;                                   !- Value Until Time 1

Schedule:Day:Interval,
  Small Office HtgSetp Winter Design Day, !- Name
  Temperature 1,                          !- Schedule Type Limits Name
  No,                                     !- Interpolate to Timestep
  24:00,                                  !- Time 1 {hh:mm}
  21;                                     !- Value Until Time 1

ScheduleTypeLimits,
  Temperature 2,                          !- Name
  ,                                       !- Lower Limit Value {BasedOnField A3}
  ,                                       !- Upper Limit Value {BasedOnField A3}
  Continuous,                             !- Numeric Type
  temperature;                            !- Unit Type

Schedule:Day:Interval,
  Small Office ClgSetp Rule 1 Day Schedule, !- Name
  Temperature 2,                          !- Schedule Type Limits Name
  No,                                     !- Interpolate to Timestep
  24:00,                                  !- Time 1 {hh:mm}
  26.7;                                   !- Value Until Time 1

Schedule:Day:Interval,
  Small Office ClgSetp Default Schedule,  !- Name
  Temperature 2,                          !- Schedule Type Limits Name
  No,                                     !- Interpolate to Timestep
  06:00,                                  !- Time 1 {hh:mm}
  26.7,                                   !- Value Until Time 1
  22:00,                                  !- Time 2 {hh:mm}
  24,                                     !- Value Until Time 2
  24:00,                                  !- Time 3 {hh:mm}
  26.7;                                   !- Value Until Time 3

Schedule:Day:Interval,
  Small Office ClgSetp Rule 2 Day Schedule, !- Name
  Temperature 2,                          !- Schedule Type Limits Name
  No,                                     !- Interpolate to Timestep
  06:00,                                  !- Time 1 {hh:mm}
  26.7,                                   !- Value Until Time 1
  18:00,                                  !- Time 2 {hh:mm}
  24,                                     !- Value Until Time 2
  24:00,                                  !- Time 3 {hh:mm}
  26.7;                                   !- Value Until Time 3

Schedule:Week:Daily,
  Schedule:Week:Daily {d3269972-62fb-4608-aa4d-9d35965b13d1}, !- Name
  Small Office ClgSetp Rule 1 Day Schedule, !- Sunday Schedule:Day Name
  Small Office ClgSetp Default Schedule,  !- Monday Schedule:Day Name
  Small Office ClgSetp Default Schedule,  !- Tuesday Schedule:Day Name
  Small Office ClgSetp Default Schedule,  !- Wednesday Schedule:Day Name
  Small Office ClgSetp Default Schedule,  !- Thursday Schedule:Day Name
  Small Office ClgSetp Default Schedule,  !- Friday Schedule:Day Name
  Small Office ClgSetp Rule 2 Day Schedule, !- Saturday Schedule:Day Name
  Small Office ClgSetp Default Schedule,  !- Holiday Schedule:Day Name
  Small Office ClgSetp Summer Design Day, !- SummerDesignDay Schedule:Day Name
  Small Office ClgSetp Winter Design Day, !- WinterDesignDay Schedule:Day Name
  Small Office ClgSetp Default Schedule,  !- CustomDay1 Schedule:Day Name
  Small Office ClgSetp Default Schedule;  !- CustomDay2 Schedule:Day Name

Schedule:Year,
  Small Office ClgSetp,                   !- Name
  Temperature 2,                          !- Schedule Type Limits Name
  Schedule:Week:Daily {d3269972-62fb-4608-aa4d-9d35965b13d1}, !- Schedule:Week Name 1
  1,                                      !- Start Month 1
  1,                                      !- Start Day 1
  12,                                     !- End Month 1
  31;                                     !- End Day 1

Schedule:Day:Interval,
  Small Office ClgSetp Summer Design Day, !- Name
  Temperature 2,                          !- Schedule Type Limits Name
  No,                                     !- Interpolate to Timestep
  06:00,                                  !- Time 1 {hh:mm}
  26.7,                                   !- Value Until Time 1
  22:00,                                  !- Time 2 {hh:mm}
  24,                                     !- Value Until Time 2
  24:00,                                  !- Time 3 {hh:mm}
  26.7;                                   !- Value Until Time 3

Schedule:Day:Interval,
  Small Office ClgSetp Winter Design Day, !- Name
  Temperature 2,                          !- Schedule Type Limits Name
  No,                                     !- Interpolate to Timestep
  24:00,                                  !- Time 1 {hh:mm}
  26.7;                                   !- Value Until Time 1

ZoneHVAC:EquipmentConnections,
  Thermal Zone 1,                         !- Zone Name
  Thermal Zone 1 Equipment List,          !- Zone Conditioning Equipment List Name
  Thermal Zone 1 Inlet Node List,         !- Zone Air Inlet Node or NodeList Name
  Thermal Zone 1 Exhaust Node List,       !- Zone Air Exhaust Node or NodeList Name
  Node 1,                                 !- Zone Air Node Name
  Node 64;                                !- Zone Return Air Node Name

NodeList,
  Thermal Zone 1 Inlet Node List,         !- Name
  Node 62,                                !- Node Name 1
  Node 63;                                !- Node Name 2

NodeList,
  Thermal Zone 1 Exhaust Node List,       !- Name
  Node 61;                                !- Node Name 1

Schedule:Constant,
  Always On Discrete,                     !- Name
  Always On Discrete Limits,              !- Schedule Type Limits Name
  1;                                      !- Hourly Value

Fan:ConstantVolume,
  Fan Constant Volume 3,                  !- Name
  Always On Discrete,                     !- Availability Schedule Name
  0.7,                                    !- Fan Total Efficiency
  250,                                    !- Pressure Rise {Pa}
  AutoSize,                               !- Maximum Flow Rate {m3/s}
  0.9,                                    !- Motor Efficiency
  1,                                      !- Motor In Airstream Fraction
  Zone HVAC Four Pipe Fan Coil 2 Mixed Air Node, !- Air Inlet Node Name
  Zone HVAC Four Pipe Fan Coil 2 Fan Outlet Node; !- Air Outlet Node Name

Coil:Cooling:Water,
  Coil Cooling Water 2,                   !- Name
  Always On Discrete,                     !- Availability Schedule Name
  Autosize,                               !- Design Water Flow Rate {m3/s}
  Autosize,                               !- Design Air Flow Rate {m3/s}
  Autosize,                               !- Design Inlet Water Temperature {C}
  Autosize,                               !- Design Inlet Air Temperature {C}
  Autosize,                               !- Design Outlet Air Temperature {C}
  Autosize,                               !- Design Inlet Air Humidity Ratio {kgWater/kgDryAir}
  Autosize,                               !- Design Outlet Air Humidity Ratio {kgWater/kgDryAir}
  Node 59,                                !- Water Inlet Node Name
  Node 60,                                !- Water Outlet Node Name
  Zone HVAC Four Pipe Fan Coil 2 Fan Outlet Node, !- Air Inlet Node Name
  Zone HVAC Four Pipe Fan Coil 2 Cooling Coil Outlet Node, !- Air Outlet Node Name
  SimpleAnalysis,                         !- Type of Analysis
  CounterFlow;                            !- Heat Exchanger Configuration

Coil:Heating:Water,
  Coil Heating Water 2,                   !- Name
  Always On Discrete,                     !- Availability Schedule Name
  Autosize,                               !- U-Factor Times Area Value {W/K}
  Autosize,                               !- Maximum Water Flow Rate {m3/s}
  Node 57,                                !- Water Inlet Node Name
  Node 58,                                !- Water Outlet Node Name
  Zone HVAC Four Pipe Fan Coil 2 Cooling Coil Outlet Node, !- Air Inlet Node Name
  Node 62,                                !- Air Outlet Node Name
  UFactorTimesAreaAndDesignWaterFlowRate, !- Performance Input Method
  Autosize,                               !- Rated Capacity {W}
  82.2,                                   !- Rated Inlet Water Temperature {C}
  16.6,                                   !- Rated Inlet Air Temperature {C}
  71.1,                                   !- Rated Outlet Water Temperature {C}
  32.2,                                   !- Rated Outlet Air Temperature {C}
  0.5;                                    !- Rated Ratio for Air and Water Convection

ZoneHVAC:FourPipeFanCoil,
  Zone HVAC Four Pipe Fan Coil 2,         !- Name
  Always On Discrete,                     !- Availability Schedule Name
  ConstantFanVariableFlow,                !- Capacity Control Method
  Autosize,                               !- Maximum Supply Air Flow Rate {m3/s}
  ,                                       !- Low Speed Supply Air Flow Ratio
  ,                                       !- Medium Speed Supply Air Flow Ratio
  Autosize,                               !- Maximum Outdoor Air Flow Rate {m3/s}
  ,                                       !- Outdoor Air Schedule Name
  Node 61,                                !- Air Inlet Node Name
  Node 62,                                !- Air Outlet Node Name
  OutdoorAir:Mixer,                       !- Outdoor Air Mixer Object Type
  Zone HVAC Four Pipe Fan Coil 2 OA Mixer, !- Outdoor Air Mixer Name
  Fan:ConstantVolume,                     !- Supply Air Fan Object Type
  Fan Constant Volume 3,                  !- Supply Air Fan Name
  Coil:Cooling:Water,                     !- Cooling Coil Object Type
  Coil Cooling Water 2,                   !- Cooling Coil Name
  Autosize,                               !- Maximum Cold Water Flow Rate {m3/s}
  ,                                       !- Minimum Cold Water Flow Rate {m3/s}
  ,                                       !- Cooling Convergence Tolerance
  Coil:Heating:Water,                     !- Heating Coil Object Type
  Coil Heating Water 2,                   !- Heating Coil Name
  Autosize,                               !- Maximum Hot Water Flow Rate {m3/s}
  ,                                       !- Minimum Hot Water Flow Rate {m3/s}
  ;                                       !- Heating Convergence Tolerance

OutdoorAir:Mixer,
  Zone HVAC Four Pipe Fan Coil 2 OA Mixer, !- Name
  Zone HVAC Four Pipe Fan Coil 2 Mixed Air Node, !- Mixed Air Node Name
  Zone HVAC Four Pipe Fan Coil 2 OA Node, !- Outdoor Air Stream Node Name
  Zone HVAC Four Pipe Fan Coil 2 Relief Air Node, !- Relief Air Stream Node Name
  Node 61;                                !- Return Air Stream Node Name

OutdoorAir:NodeList,
  Zone HVAC Four Pipe Fan Coil 2 OA Node; !- Node or NodeList Name 1

AirTerminal:SingleDuct:Uncontrolled,
  Air Terminal Single Duct Uncontrolled 2, !- Name
  Always On Discrete,                     !- Availability Schedule Name
  Node 63,                                !- Zone Supply Air Node Name
  AutoSize;                               !- Maximum Air Flow Rate {m3/s}

ZoneHVAC:EquipmentList,
  Thermal Zone 1 Equipment List,          !- Name
  ZoneHVAC:FourPipeFanCoil,               !- Zone Equipment Object Type 1
  Zone HVAC Four Pipe Fan Coil 2,         !- Zone Equipment Name 1
  1,                                      !- Zone Equipment Cooling Sequence 1
  1,                                      !- Zone Equipment Heating or No-Load Sequence 1
  AirTerminal:SingleDuct:Uncontrolled,    !- Zone Equipment Object Type 2
  Air Terminal Single Duct Uncontrolled 2, !- Zone Equipment Name 2
  2,                                      !- Zone Equipment Cooling Sequence 2
  2;                                      !- Zone Equipment Heating or No-Load Sequence 2

Sizing:Zone,
  Thermal Zone 1,                         !- Zone or ZoneList Name
  SupplyAirTemperature,                   !- Zone Cooling Design Supply Air Temperature Input Method
  14,                                     !- Zone Cooling Design Supply Air Temperature {C}
  ,                                       !- Zone Cooling Design Supply Air Temperature Difference {deltaC}
  SupplyAirTemperature,                   !- Zone Heating Design Supply Air Temperature Input Method
  40,                                     !- Zone Heating Design Supply Air Temperature {C}
  ,                                       !- Zone Heating Design Supply Air Temperature Difference {deltaC}
  0.0085,                                 !- Zone Cooling Design Supply Air Humidity Ratio {kgWater/kgDryAir}
  0.008,                                  !- Zone Heating Design Supply Air Humidity Ratio {kgWater/kgDryAir}
  SmallOffice Outdoor Air,                !- Design Specification Outdoor Air Object Name
  ,                                       !- Zone Heating Sizing Factor
  ,                                       !- Zone Cooling Sizing Factor
  DesignDay,                              !- Cooling Design Air Flow Method
  0,                                      !- Cooling Design Air Flow Rate {m3/s}
  0.000762,                               !- Cooling Minimum Air Flow per Zone Floor Area {m3/s-m2}
  0,                                      !- Cooling Minimum Air Flow {m3/s}
  0,                                      !- Cooling Minimum Air Flow Fraction
  DesignDay,                              !- Heating Design Air Flow Method
  0,                                      !- Heating Design Air Flow Rate {m3/s}
  0.002032,                               !- Heating Maximum Air Flow per Zone Floor Area {m3/s-m2}
  0.1415762,                              !- Heating Maximum Air Flow {m3/s}
  0.3,                                    !- Heating Maximum Air Flow Fraction
  Thermal Zone 1 Design Spec Zone Air Dist; !- Design Specification Zone Air Distribution Object Name

DesignSpecification:ZoneAirDistribution,
  Thermal Zone 1 Design Spec Zone Air Dist, !- Name
  1,                                      !- Zone Air Distribution Effectiveness in Cooling Mode {dimensionless}
  1;                                      !- Zone Air Distribution Effectiveness in Heating Mode {dimensionless}

Controller:MechanicalVentilation,
  Controller Mechanical Ventilation 1,    !- Name
  Always On Discrete,                     !- Availability Schedule Name
  No,                                     !- Demand Controlled Ventilation
  ZoneSum,                                !- System Outdoor Air Method
  ,                                       !- Zone Maximum Outdoor Air Fraction {dimensionless}
  Thermal Zone 1,                         !- Zone Name 1
  SmallOffice Outdoor Air,                !- Design Specification Outdoor Air Object Name 1
  Thermal Zone 1 Design Spec Zone Air Dist, !- Design Specification Zone Air Distribution Object Name 1
  Thermal Zone 2,                         !- Zone Name 2
  SmallOffice Outdoor Air,                !- Design Specification Outdoor Air Object Name 2
  Thermal Zone 2 Design Spec Zone Air Dist, !- Design Specification Zone Air Distribution Object Name 2
  Thermal Zone 3,                         !- Zone Name 3
  SmallOffice Outdoor Air,                !- Design Specification Outdoor Air Object Name 3
  Thermal Zone 3 Design Spec Zone Air Dist, !- Design Specification Zone Air Distribution Object Name 3
  Thermal Zone 4,                         !- Zone Name 4
  SmallOffice Outdoor Air,                !- Design Specification Outdoor Air Object Name 4
  Thermal Zone 4 Design Spec Zone Air Dist, !- Design Specification Zone Air Distribution Object Name 4
  Thermal Zone 5,                         !- Zone Name 5
  SmallOffice Outdoor Air,                !- Design Specification Outdoor Air Object Name 5
  Thermal Zone 5 Design Spec Zone Air Dist; !- Design Specification Zone Air Distribution Object Name 5

DesignSpecification:OutdoorAir,
  SmallOffice Outdoor Air,                !- Name
  Sum,                                    !- Outdoor Air Method
  0.0107645200000431,                     !- Outdoor Air Flow per Person {m3/s-person}
  0,                                      !- Outdoor Air Flow per Zone Floor Area {m3/s-m2}
  0,                                      !- Outdoor Air Flow per Zone {m3/s}
  0;                                      !- Outdoor Air Flow Air Changes per Hour {1/hr}

Zone,
  Thermal Zone 2,                         !- Name
  -0,                                     !- Direction of Relative North {deg}
  0,                                      !- X Origin {m}
  0,                                      !- Y Origin {m}
  0,                                      !- Z Origin {m}
  ,                                       !- Type
  ,                                       !- Multiplier
  ,                                       !- Ceiling Height {m}
  ,                                       !- Volume {m3}
  ,                                       !- Floor Area {m2}
  ,                                       !- Zone Inside Convection Algorithm
  ;                                       !- Zone Outside Convection Algorithm

BuildingSurface:Detailed,
  Surface 1,                              !- Name
  Floor,                                  !- Surface Type
  000 ExtSlabCarpet 4in ClimateZone 1-8,  !- Construction Name
  Thermal Zone 2,                         !- Zone Name
  Ground,                                 !- Outside Boundary Condition
  ,                                       !- Outside Boundary Condition Object